# DIS package for  MODFLOW-2005, generated by Flopy.
         2       100       150         1         4         1
  0  0
CONSTANT    2.925653E+03                           #delr                          
CONSTANT    2.727600E+03                           #delc                          
INTERNAL               1 (150E15.6) -1 #model_top                     
   6.734097E+02   6.691569E+02   6.659269E+02   6.494949E+02   6.602499E+02   6.271959E+02   6.520698E+02   6.504042E+02   6.746075E+02   6.459198E+02   6.777824E+02   6.467023E+02   6.762543E+02   6.628713E+02   6.590571E+02   6.448242E+02   6.367809E+02   6.226851E+02   6.548587E+02   5.936338E+02   5.401200E+02   5.701962E+02   5.617399E+02   5.995936E+02   5.566819E+02   6.023940E+02   5.900750E+02   5.749600E+02   6.112701E+02   6.401240E+02   6.607343E+02   6.915485E+02   6.876438E+02   6.779697E+02   6.081108E+02   6.777553E+02   6.058031E+02   6.417973E+02   6.728909E+02   6.737482E+02   6.291047E+02   6.996559E+02   7.098190E+02   7.328854E+02   7.338826E+02   7.138389E+02   6.907150E+02   7.115056E+02   7.111038E+02   7.359122E+02   6.861912E+02   7.094144E+02   7.242284E+02   7.302618E+02   6.980710E+02   6.889893E+02   6.929502E+02   6.856894E+02   7.041611E+02   6.829229E+02   6.655029E+02   6.718807E+02   7.202488E+02   6.805748E+02   6.808406E+02   7.170226E+02   6.830939E+02   6.379970E+02   5.952040E+02   6.688973E+02   6.721094E+02   6.858052E+02   6.714559E+02   6.042307E+02   5.853199E+02   5.730271E+02   5.766510E+02   5.923835E+02   5.706311E+02   5.162366E+02   6.379246E+02   6.129911E+02   6.217454E+02   6.248210E+02   6.089702E+02   6.362170E+02   6.621416E+02   6.550176E+02   4.450395E+02   4.450721E+02   4.498904E+02   6.318660E+02   7.085190E+02   5.667104E+02   7.453929E+02   7.787306E+02   7.513394E+02   8.003553E+02   8.003777E+02   7.973987E+02   7.651183E+02   7.942641E+02   7.860456E+02   7.787234E+02   7.791891E+02   7.617656E+02   7.600639E+02   7.622758E+02   7.525293E+02   7.556544E+02   7.507216E+02   7.549354E+02   7.575665E+02   7.229760E+02   7.367217E+02   7.292203E+02   7.580715E+02   7.640428E+02   7.706545E+02   7.597384E+02   7.602467E+02   7.517236E+02   7.506431E+02   7.510602E+02   7.495447E+02   7.448062E+02   7.391336E+02   7.102924E+02   6.607576E+02   7.046881E+02   7.315607E+02   7.361870E+02   7.393403E+02   7.272529E+02   7.390259E+02   7.458999E+02   7.397693E+02   7.268954E+02   7.259475E+02   7.213099E+02   7.251163E+02   7.408751E+02   7.563700E+02   7.552007E+02   7.551721E+02   7.457234E+02   7.400159E+02   7.372593E+02   7.383588E+02   7.399845E+02
   6.553456E+02   6.682833E+02   6.439317E+02   5.976102E+02   5.799863E+02   6.174274E+02   6.724041E+02   6.401674E+02   6.412895E+02   6.473940E+02   6.358524E+02   6.611237E+02   6.523718E+02   6.584038E+02   5.337166E+02   5.324349E+02   5.620848E+02   6.316376E+02   6.193189E+02   5.277722E+02   5.333423E+02   5.451234E+02   5.449808E+02   6.144902E+02   6.031961E+02   5.896464E+02   6.317565E+02   6.240800E+02   6.381664E+02   6.496611E+02   6.597422E+02   6.833218E+02   6.717463E+02   6.836617E+02   6.681727E+02   6.701141E+02   7.526601E+02   6.631859E+02   6.998196E+02   7.182524E+02   6.630305E+02   7.014011E+02   7.144445E+02   7.586308E+02   7.281539E+02   6.639050E+02   7.090623E+02   7.230079E+02   7.373891E+02   6.802538E+02   7.183397E+02   7.308815E+02   7.470558E+02   7.330239E+02   6.996746E+02   7.191082E+02   7.084144E+02   6.927623E+02   6.998235E+02   7.031175E+02   6.801994E+02   7.002407E+02   7.300374E+02   6.738558E+02   7.213281E+02   7.072563E+02   5.942466E+02   6.517564E+02   6.533568E+02   6.228418E+02   6.979754E+02   7.241967E+02   6.942681E+02   6.627855E+02   5.656837E+02   6.090103E+02   5.867015E+02   5.876168E+02   4.995271E+02   5.038840E+02   6.156962E+02   6.162059E+02   6.177319E+02   5.993748E+02   6.114689E+02   6.230168E+02   6.377811E+02   5.214177E+02   4.450065E+02   4.450394E+02   4.640931E+02   5.428484E+02   7.178397E+02   7.438320E+02   7.553917E+02   7.897753E+02   7.961746E+02   8.097330E+02   8.065761E+02   7.894988E+02   7.736723E+02   7.673002E+02   7.800801E+02   7.623455E+02   7.572419E+02   7.478783E+02   7.696746E+02   7.701971E+02   7.597218E+02   7.563417E+02   7.544489E+02   7.581062E+02   7.526539E+02   7.434875E+02   7.399709E+02   7.847079E+02   7.771989E+02   7.836846E+02   7.725471E+02   7.601033E+02   7.554799E+02   7.382393E+02   7.369326E+02   7.376125E+02   7.456696E+02   7.448444E+02   7.447525E+02   7.161652E+02   7.111935E+02   7.037427E+02   7.316307E+02   7.300886E+02   7.397064E+02   7.322657E+02   7.381048E+02   7.501198E+02   7.442562E+02   7.315677E+02   7.204576E+02   7.224802E+02   7.194966E+02   7.356042E+02   7.397739E+02   7.527311E+02   7.599540E+02   7.497068E+02   7.452818E+02   7.403149E+02   7.441658E+02   7.448574E+02
   6.493209E+02   6.693690E+02   6.650789E+02   6.524435E+02   6.102608E+02   5.749435E+02   6.324177E+02   6.260441E+02   6.356977E+02   6.229444E+02   6.430250E+02   6.029398E+02   6.480103E+02   6.349988E+02   5.420206E+02   5.346878E+02   5.400428E+02   5.304761E+02   5.281542E+02   5.198715E+02   5.380634E+02   5.296796E+02   5.960281E+02   6.246639E+02   6.303372E+02   6.286990E+02   6.342008E+02   6.357759E+02   6.445745E+02   5.979145E+02   6.497728E+02   6.815256E+02   6.932529E+02   6.984261E+02   7.047087E+02   7.155352E+02   7.229396E+02   7.197667E+02   7.124147E+02   7.133817E+02   7.044454E+02   6.602953E+02   7.091149E+02   7.318705E+02   7.395146E+02   7.444810E+02   7.307076E+02   7.344733E+02   7.561783E+02   7.497366E+02   7.016322E+02   7.367693E+02   7.502317E+02   7.274655E+02   7.221854E+02   6.881543E+02   7.397397E+02   6.913667E+02   7.230247E+02   7.196747E+02   7.006901E+02   6.702431E+02   7.368233E+02   7.420386E+02   7.388188E+02   7.028334E+02   5.954119E+02   5.836355E+02   6.750384E+02   6.336392E+02   7.001782E+02   7.228275E+02   7.096943E+02   7.059242E+02   6.496855E+02   5.736512E+02   6.145701E+02   6.503632E+02   6.084199E+02   4.797460E+02   5.879897E+02   4.768008E+02   5.457414E+02   5.590278E+02   6.241051E+02   6.138374E+02   5.091205E+02   4.639783E+02   4.449738E+02   4.450067E+02   4.634918E+02   6.860282E+02   6.883354E+02   6.811588E+02   7.007264E+02   7.396222E+02   7.889930E+02   8.169884E+02   8.042276E+02   7.794196E+02   7.745999E+02   7.205099E+02   7.257108E+02   7.439875E+02   7.453013E+02   7.702653E+02   7.626583E+02   7.596416E+02   7.633127E+02   7.596039E+02   7.579727E+02   7.518256E+02   7.488370E+02   7.125261E+02   7.242700E+02   7.298735E+02   7.825228E+02   7.672983E+02   7.807889E+02   7.692361E+02   7.597242E+02   7.499006E+02   7.394355E+02   7.394194E+02   7.109026E+02   7.503893E+02   7.434344E+02   6.586071E+02   7.110779E+02   7.401760E+02   7.408732E+02   7.482521E+02   7.439659E+02   7.413796E+02   7.497579E+02   7.496913E+02   7.470407E+02   7.354926E+02   7.248541E+02   7.247842E+02   7.204102E+02   7.192373E+02   7.204460E+02   7.184786E+02   7.296124E+02   7.581760E+02   7.474352E+02   7.384531E+02   7.550750E+02   7.533091E+02
   6.286314E+02   6.184242E+02   6.505793E+02   6.444020E+02   6.256011E+02   5.707896E+02   5.715337E+02   6.318881E+02   6.020880E+02   6.030580E+02   6.261714E+02   6.390590E+02   6.441787E+02   6.390287E+02   5.709869E+02   5.427811E+02   6.041726E+02   6.348824E+02   6.207566E+02   5.197703E+02   5.599899E+02   6.139429E+02   6.024084E+02   5.799288E+02   6.301323E+02   6.256329E+02   6.126262E+02   6.256605E+02   6.072828E+02   6.346269E+02   6.486782E+02   6.453205E+02   6.772238E+02   6.847610E+02   7.026060E+02   7.209147E+02   7.357666E+02   7.299838E+02   7.197978E+02   7.194514E+02   7.192748E+02   7.085013E+02   7.309014E+02   7.327167E+02   7.223870E+02   7.495637E+02   7.487084E+02   7.698522E+02   7.510186E+02   7.688019E+02   7.191413E+02   7.598765E+02   7.513757E+02   7.311368E+02   7.404849E+02   6.891606E+02   7.519300E+02   7.415580E+02   7.409831E+02   7.406423E+02   7.225891E+02   7.389899E+02   7.393607E+02   7.450592E+02   7.196327E+02   6.471268E+02   7.109034E+02   6.510174E+02   6.839047E+02   7.214259E+02   7.114295E+02   7.063437E+02   7.115684E+02   7.033090E+02   6.875651E+02   7.002183E+02   6.985421E+02   6.874034E+02   6.856736E+02   4.666786E+02   5.784036E+02   5.925582E+02   5.996982E+02   6.050344E+02   5.884158E+02   5.096556E+02   4.869557E+02   4.449411E+02   4.449410E+02   4.449739E+02   5.949595E+02   6.949076E+02   6.671334E+02   6.911182E+02   6.850541E+02   7.212134E+02   7.545888E+02   8.003444E+02   7.712647E+02   7.523695E+02   7.603113E+02   7.311606E+02   7.508481E+02   7.541161E+02   7.705735E+02   7.753178E+02   7.737663E+02   7.696424E+02   7.675862E+02   7.687861E+02   7.559368E+02   7.610455E+02   7.539689E+02   7.366938E+02   7.276395E+02   6.871471E+02   7.195648E+02   7.612765E+02   7.927410E+02   7.762281E+02   7.614552E+02   7.547358E+02   7.558645E+02   7.333561E+02   7.042716E+02   7.429344E+02   7.413194E+02   6.448842E+02   7.325081E+02   7.481680E+02   7.468906E+02   7.453182E+02   7.398620E+02   7.444473E+02   7.502930E+02   7.481156E+02   7.458962E+02   7.428793E+02   7.303020E+02   7.197710E+02   7.196747E+02   7.121794E+02   7.174650E+02   7.215194E+02   7.390944E+02   7.345327E+02   7.536157E+02   7.292768E+02   7.430244E+02   7.310264E+02
   6.055450E+02   5.937067E+02   6.449219E+02   6.455875E+02   6.263960E+02   5.890903E+02   5.661672E+02   5.647126E+02   5.637059E+02   6.144028E+02   5.541613E+02   5.540929E+02   6.148409E+02   5.813792E+02   5.801030E+02   5.985394E+02   6.375912E+02   6.059617E+02   5.197706E+02   5.194542E+02   5.196895E+02   5.303204E+02   5.800864E+02   5.468920E+02   5.597151E+02   5.740403E+02   6.304036E+02   6.434091E+02   6.531725E+02   6.670053E+02   6.604135E+02   6.594778E+02   6.823445E+02   7.005372E+02   7.108200E+02   7.108768E+02   7.030978E+02   6.953278E+02   7.100159E+02   7.321141E+02   7.277012E+02   7.213001E+02   7.322637E+02   7.390750E+02   7.296089E+02   7.330909E+02   7.447451E+02   7.579734E+02   7.652405E+02   7.677485E+02   7.568995E+02   7.640650E+02   7.686674E+02   7.598102E+02   7.448422E+02   7.491268E+02   7.508129E+02   7.455579E+02   7.344733E+02   7.312877E+02   7.211761E+02   7.386049E+02   7.403629E+02   7.297569E+02   7.233195E+02   7.208481E+02   7.157078E+02   7.018331E+02   6.817601E+02   7.339112E+02   7.202483E+02   6.594855E+02   7.082078E+02   6.806364E+02   6.972993E+02   7.025723E+02   6.900891E+02   6.399626E+02   6.486078E+02   4.655954E+02   4.994878E+02   5.935933E+02   5.997032E+02   5.157791E+02   5.197974E+02   4.449072E+02   4.449074E+02   4.449081E+02   4.449409E+02   4.572262E+02   6.945599E+02   6.649924E+02   5.743217E+02   6.898928E+02   7.147496E+02   7.229703E+02   7.718371E+02   7.808927E+02   7.612076E+02   7.511656E+02   7.049343E+02   7.616102E+02   7.617755E+02   7.693887E+02   7.778026E+02   7.866385E+02   7.773917E+02   7.746687E+02   7.727999E+02   7.588393E+02   7.585024E+02   7.604295E+02   7.469609E+02   7.523223E+02   7.490234E+02   6.996306E+02   7.119478E+02   7.293149E+02   7.979363E+02   7.878154E+02   7.699568E+02   7.611899E+02   7.506684E+02   7.395959E+02   7.266205E+02   7.372074E+02   7.026140E+02   6.514069E+02   7.277231E+02   7.436402E+02   7.504113E+02   7.411748E+02   7.413782E+02   7.439798E+02   7.397767E+02   7.481048E+02   7.490995E+02   7.439979E+02   7.302944E+02   7.298325E+02   7.237634E+02   7.042421E+02   7.147264E+02   7.198442E+02   7.258785E+02   7.319866E+02   7.391347E+02   7.246110E+02   7.505308E+02   7.324995E+02
   6.533853E+02   6.127686E+02   6.165154E+02   5.797646E+02   6.296205E+02   5.732524E+02   6.321602E+02   6.369185E+02   6.335881E+02   6.385022E+02   5.975709E+02   5.579531E+02   5.911866E+02   5.386779E+02   5.871533E+02   6.383882E+02   6.403183E+02   6.360811E+02   5.208797E+02   5.197703E+02   5.202660E+02   5.589880E+02   5.927211E+02   6.172477E+02   6.121769E+02   5.861445E+02   6.262656E+02   6.402622E+02   6.560038E+02   6.680276E+02   6.786176E+02   6.820329E+02   6.625069E+02   6.694850E+02   6.788826E+02   6.579902E+02   7.269186E+02   7.293701E+02   7.316669E+02   7.365876E+02   7.330087E+02   7.345621E+02   7.593936E+02   7.473973E+02   7.423424E+02   7.357311E+02   7.457283E+02   7.513408E+02   7.528490E+02   7.653964E+02   7.736153E+02   7.826968E+02   7.507320E+02   7.326343E+02   7.496991E+02   7.397650E+02   7.402609E+02   7.298326E+02   7.219649E+02   7.240822E+02   7.002017E+02   7.246990E+02   7.210858E+02   7.326973E+02   7.262623E+02   7.287271E+02   7.237732E+02   7.018051E+02   7.086149E+02   7.205437E+02   6.882032E+02   6.628408E+02   6.882132E+02   6.912799E+02   6.907869E+02   6.858403E+02   6.728929E+02   6.526254E+02   6.022544E+02   5.159583E+02   5.589862E+02   5.148486E+02   5.141595E+02   5.088945E+02   4.448755E+02   4.612864E+02   4.456259E+02   4.449082E+02   4.648029E+02   6.790785E+02   6.568981E+02   5.739764E+02   6.655668E+02   6.741926E+02   6.918680E+02   6.698098E+02   6.995494E+02   6.408759E+02   7.254388E+02   6.749619E+02   7.633850E+02   7.640154E+02   7.662036E+02   7.808938E+02   7.905490E+02   7.976381E+02   7.898545E+02   7.737501E+02   7.698485E+02   7.757267E+02   7.596226E+02   7.501333E+02   7.218360E+02   7.351356E+02   7.478348E+02   7.389531E+02   6.860809E+02   7.268892E+02   7.813958E+02   7.895551E+02   7.757275E+02   7.558275E+02   7.192273E+02   7.218417E+02   7.367201E+02   7.251042E+02   6.937500E+02   7.300120E+02   7.005999E+02   7.276580E+02   7.305662E+02   7.086383E+02   7.316434E+02   7.381522E+02   7.514671E+02   7.398597E+02   7.403270E+02   7.404992E+02   7.423975E+02   7.300227E+02   7.189391E+02   7.199025E+02   7.291727E+02   7.276913E+02   7.282173E+02   7.199649E+02   6.737678E+02   7.415344E+02   7.307650E+02   7.076033E+02
   6.485585E+02   6.181546E+02   6.030074E+02   5.930701E+02   6.121777E+02   6.303385E+02   5.997393E+02   6.282187E+02   6.332192E+02   6.352810E+02   6.349777E+02   5.547415E+02   5.521987E+02   5.496452E+02   6.599703E+02   6.133571E+02   6.315689E+02   6.138932E+02   5.146523E+02   5.112863E+02   5.305274E+02   6.221324E+02   6.499777E+02   6.257209E+02   6.333662E+02   6.335570E+02   6.510818E+02   6.600119E+02   6.706210E+02   6.308025E+02   6.587313E+02   6.022573E+02   6.180156E+02   6.415790E+02   6.551172E+02   7.218493E+02   7.209540E+02   7.327315E+02   7.354371E+02   7.460962E+02   7.451974E+02   7.622807E+02   7.663288E+02   7.600201E+02   7.387759E+02   7.471849E+02   7.492438E+02   7.580020E+02   7.702112E+02   7.723241E+02   7.821063E+02   7.493113E+02   7.542669E+02   7.333028E+02   7.409080E+02   7.295139E+02   7.189368E+02   7.209898E+02   6.824591E+02   7.047499E+02   7.028663E+02   7.143414E+02   7.196970E+02   7.084548E+02   7.150623E+02   7.242628E+02   7.204706E+02   6.978451E+02   7.003456E+02   7.011575E+02   6.833292E+02   6.306292E+02   6.813872E+02   6.285419E+02   6.294433E+02   6.465438E+02   6.529997E+02   6.464557E+02   6.160399E+02   5.584820E+02   5.145865E+02   5.409558E+02   5.095125E+02   4.448084E+02   4.533660E+02   4.570269E+02   4.609454E+02   4.568341E+02   6.475521E+02   5.454218E+02   5.379415E+02   5.611190E+02   6.076342E+02   6.491428E+02   6.118420E+02   6.061829E+02   6.882694E+02   7.217986E+02   7.659852E+02   7.830648E+02   7.988593E+02   7.772253E+02   7.900226E+02   7.751852E+02   7.988338E+02   8.008837E+02   7.797493E+02   7.795978E+02   7.756582E+02   7.788524E+02   7.596159E+02   7.498369E+02   7.440986E+02   6.913461E+02   7.397500E+02   6.759214E+02   7.142314E+02   7.702050E+02   7.562275E+02   7.873649E+02   7.702708E+02   7.632534E+02   7.360470E+02   7.272657E+02   6.593286E+02   6.391765E+02   7.033360E+02   7.339774E+02   7.329100E+02   7.417035E+02   7.336398E+02   7.223502E+02   7.343305E+02   7.435509E+02   7.410115E+02   7.204395E+02   7.408713E+02   7.477997E+02   7.419731E+02   7.385018E+02   7.201654E+02   7.153440E+02   7.299026E+02   7.196899E+02   6.714938E+02   6.951668E+02   6.949004E+02   7.106161E+02   6.731226E+02   6.695590E+02
   6.943453E+02   5.989964E+02   5.860853E+02   6.452947E+02   6.379451E+02   6.366621E+02   6.222479E+02   6.352391E+02   6.372603E+02   6.372792E+02   6.227115E+02   6.448977E+02   5.591879E+02   6.708099E+02   6.879853E+02   6.225339E+02   6.098068E+02   5.361459E+02   5.097632E+02   5.102343E+02   5.365165E+02   5.891306E+02   6.325144E+02   6.511302E+02   6.437731E+02   6.603995E+02   5.681606E+02   5.634326E+02   5.702716E+02   6.571832E+02   6.715007E+02   5.971083E+02   7.028199E+02   6.999726E+02   7.097792E+02   7.160101E+02   7.305018E+02   7.370651E+02   7.219000E+02   7.396944E+02   7.510298E+02   7.668741E+02   7.622281E+02   7.607680E+02   7.542016E+02   7.556437E+02   7.596744E+02   7.644062E+02   7.588741E+02   7.639002E+02   7.637802E+02   7.447712E+02   7.070992E+02   7.220013E+02   7.169787E+02   7.114398E+02   7.107463E+02   7.086558E+02   7.056607E+02   6.992365E+02   6.378977E+02   6.239225E+02   7.190176E+02   6.871757E+02   6.843439E+02   7.209401E+02   7.104228E+02   6.675319E+02   6.105800E+02   6.823681E+02   6.529505E+02   6.001596E+02   6.702360E+02   6.068197E+02   6.291904E+02   5.858669E+02   6.534799E+02   5.939963E+02   6.012919E+02   5.204340E+02   5.243409E+02   4.982975E+02   4.447770E+02   4.324309E+02   4.377520E+02   4.525270E+02   4.664793E+02   6.135400E+02   4.829231E+02   4.887054E+02   5.898537E+02   5.079714E+02   5.973990E+02   5.727244E+02   6.770633E+02   6.946136E+02   7.318346E+02   7.596944E+02   7.877568E+02   7.873882E+02   8.108243E+02   8.071110E+02   8.016917E+02   7.896350E+02   7.714233E+02   7.671104E+02   7.899565E+02   7.699039E+02   7.719863E+02   7.632582E+02   7.583288E+02   7.415507E+02   7.497943E+02   7.318602E+02   7.212411E+02   6.620408E+02   6.763345E+02   6.848184E+02   7.221639E+02   7.724976E+02   7.231292E+02   6.620240E+02   6.505618E+02   6.274257E+02   7.027441E+02   7.130225E+02   7.512867E+02   7.495452E+02   7.488656E+02   6.840906E+02   7.114714E+02   7.400615E+02   7.541343E+02   6.496157E+02   6.550658E+02   6.557471E+02   7.391671E+02   7.497728E+02   7.360999E+02   6.624717E+02   6.608160E+02   7.046097E+02   6.989132E+02   6.852373E+02   6.810117E+02   7.123127E+02   7.278333E+02   7.233326E+02   7.196642E+02   7.096049E+02
   6.914685E+02   6.677350E+02   6.378634E+02   6.519213E+02   6.415979E+02   6.360362E+02   6.385384E+02   6.197794E+02   6.396075E+02   6.388788E+02   6.393256E+02   6.478107E+02   6.487401E+02   6.710024E+02   6.550612E+02   7.535037E+02   6.248670E+02   5.220986E+02   5.120917E+02   5.211390E+02   6.021191E+02   6.517559E+02   6.234953E+02   6.440712E+02   5.651653E+02   5.558305E+02   5.956571E+02   6.742539E+02   7.072039E+02   6.392562E+02   7.055953E+02   7.171273E+02   7.339703E+02   7.149849E+02   6.712974E+02   7.206541E+02   7.125854E+02   7.348867E+02   7.411273E+02   7.523441E+02   7.622979E+02   7.688600E+02   7.702507E+02   7.700190E+02   7.631287E+02   7.528221E+02   7.503151E+02   7.582228E+02   7.444783E+02   7.597783E+02   7.503898E+02   7.293212E+02   7.215228E+02   7.179317E+02   7.092442E+02   7.041929E+02   7.120496E+02   6.999439E+02   6.875463E+02   6.162607E+02   6.273831E+02   7.011202E+02   7.009033E+02   6.298916E+02   7.027384E+02   7.155571E+02   6.920503E+02   6.935682E+02   6.575010E+02   6.395225E+02   5.863577E+02   6.036156E+02   6.523937E+02   6.314798E+02   5.515775E+02   6.499951E+02   6.477830E+02   6.425126E+02   6.224892E+02   4.542721E+02   5.028331E+02   4.525796E+02   4.447769E+02   4.447770E+02   4.397719E+02   5.011299E+02   4.920341E+02   5.147037E+02   6.252515E+02   6.316387E+02   5.884441E+02   6.636815E+02   5.395748E+02   5.479044E+02   6.926013E+02   7.309551E+02   7.417186E+02   7.502990E+02   7.971439E+02   8.003594E+02   8.218131E+02   8.299832E+02   8.169529E+02   7.900609E+02   7.797866E+02   7.703317E+02   7.718924E+02   7.860894E+02   7.716473E+02   7.690604E+02   7.586796E+02   7.546041E+02   7.400458E+02   7.397636E+02   7.466379E+02   6.970595E+02   6.760334E+02   7.078409E+02   6.551036E+02   7.731742E+02   6.273394E+02   6.297803E+02   6.391111E+02   6.364124E+02   7.477925E+02   7.231825E+02   6.538542E+02   6.416523E+02   6.622219E+02   7.154001E+02   7.004787E+02   6.531906E+02   6.993291E+02   6.502395E+02   6.655603E+02   7.185422E+02   6.834053E+02   7.338389E+02   6.642051E+02   6.637906E+02   7.073931E+02   7.256591E+02   7.152133E+02   7.101449E+02   7.002978E+02   7.088374E+02   7.364164E+02   7.365380E+02   7.499080E+02   7.375903E+02
   6.928810E+02   6.835908E+02   6.966273E+02   6.601733E+02   6.490244E+02   6.135138E+02   6.384598E+02   6.400162E+02   6.357339E+02   6.439152E+02   6.572421E+02   6.634553E+02   6.477731E+02   6.275789E+02   6.290981E+02   6.186846E+02   6.120132E+02   5.183959E+02   5.101865E+02   5.898591E+02   5.843116E+02   6.331195E+02   5.772703E+02   5.457928E+02   6.112039E+02   6.598502E+02   6.830280E+02   6.803130E+02   7.091682E+02   6.757289E+02   7.296780E+02   7.313518E+02   7.089834E+02   6.398646E+02   6.537491E+02   7.341713E+02   7.288209E+02   7.394072E+02   7.510637E+02   7.569856E+02   7.766887E+02   7.759854E+02   7.719352E+02   7.616400E+02   7.571462E+02   7.537744E+02   7.459240E+02   7.171525E+02   7.416352E+02   7.437438E+02   7.360121E+02   7.099664E+02   7.204432E+02   7.053223E+02   7.049518E+02   7.046808E+02   7.088898E+02   7.051458E+02   6.541899E+02   6.883071E+02   5.789916E+02   6.983610E+02   6.832336E+02   6.470710E+02   7.001769E+02   7.003267E+02   6.800234E+02   6.867667E+02   6.810482E+02   5.749447E+02   6.427551E+02   5.821572E+02   6.566395E+02   6.347880E+02   6.073195E+02   6.397155E+02   6.343974E+02   6.301096E+02   6.072208E+02   4.636335E+02   4.532053E+02   4.656522E+02   4.718154E+02   4.447768E+02   5.264250E+02   6.035563E+02   5.037050E+02   6.627175E+02   6.000199E+02   5.523470E+02   6.363879E+02   6.501714E+02   6.603538E+02   6.566703E+02   5.670207E+02   6.949645E+02   6.972755E+02   7.342911E+02   7.398438E+02   7.595206E+02   8.321175E+02   8.398985E+02   8.303158E+02   8.014243E+02   7.790565E+02   7.396287E+02   7.564568E+02   7.898550E+02   7.791100E+02   7.548033E+02   7.637136E+02   7.504746E+02   7.386806E+02   7.397639E+02   7.397309E+02   7.486736E+02   7.389808E+02   6.393087E+02   6.538524E+02   7.294001E+02   6.368184E+02   6.568095E+02   7.147703E+02   6.344493E+02   6.241424E+02   6.577679E+02   6.492475E+02   7.503481E+02   7.229393E+02   7.216736E+02   7.413693E+02   7.200262E+02   7.098066E+02   7.319244E+02   7.319288E+02   7.143055E+02   6.910806E+02   7.316979E+02   7.305316E+02   7.307673E+02   7.265233E+02   7.352735E+02   7.135851E+02   7.317947E+02   7.170299E+02   7.328181E+02   7.343074E+02   7.198785E+02   7.500256E+02   7.492446E+02
   6.756700E+02   6.937019E+02   7.072739E+02   6.616772E+02   6.475715E+02   6.411458E+02   6.359661E+02   6.463948E+02   6.469783E+02   6.523936E+02   6.658630E+02   6.316038E+02   6.303503E+02   6.304525E+02   6.277955E+02   6.219777E+02   5.706286E+02   5.114807E+02   5.123043E+02   5.177092E+02   5.753267E+02   5.586655E+02   5.799503E+02   6.542713E+02   6.723151E+02   7.030974E+02   6.453356E+02   6.727662E+02   7.211882E+02   7.024933E+02   6.790889E+02   7.383563E+02   7.376749E+02   7.188251E+02   7.241812E+02   7.470423E+02   7.492286E+02   7.538637E+02   7.454813E+02   7.531781E+02   7.713220E+02   7.593370E+02   7.616122E+02   7.425553E+02   7.344330E+02   7.403559E+02   6.582930E+02   6.993062E+02   7.224767E+02   7.222113E+02   7.205252E+02   6.754192E+02   7.205793E+02   6.867488E+02   7.007932E+02   7.005015E+02   6.668729E+02   6.853513E+02   6.782364E+02   5.927394E+02   6.694398E+02   6.730591E+02   6.600424E+02   6.649941E+02   6.653700E+02   6.714550E+02   6.416879E+02   6.466834E+02   6.535758E+02   6.307828E+02   6.177036E+02   5.853739E+02   6.316191E+02   6.206662E+02   6.171924E+02   5.974078E+02   6.363442E+02   6.441025E+02   6.442660E+02   4.602801E+02   4.442487E+02   4.448706E+02   4.755193E+02   6.109420E+02   6.819244E+02   6.636420E+02   5.430243E+02   6.930968E+02   7.017641E+02   6.918134E+02   6.279502E+02   7.044333E+02   6.927838E+02   6.903206E+02   6.837363E+02   6.129088E+02   6.957729E+02   6.562096E+02   7.222918E+02   7.711052E+02   7.940923E+02   8.384933E+02   8.433772E+02   8.161985E+02   7.864890E+02   7.477960E+02   7.523348E+02   7.567139E+02   7.785627E+02   7.610887E+02   7.591768E+02   7.354962E+02   7.473535E+02   7.397309E+02   7.446774E+02   7.478923E+02   7.367107E+02   6.503002E+02   7.308002E+02   6.219798E+02   6.374474E+02   7.224124E+02   7.579120E+02   7.557996E+02   7.185231E+02   6.476276E+02   6.397839E+02   6.498860E+02   7.106133E+02   7.491659E+02   7.596043E+02   7.565490E+02   7.473608E+02   7.714297E+02   7.257106E+02   7.198591E+02   7.416471E+02   7.198592E+02   7.504043E+02   7.531386E+02   7.514424E+02   7.501324E+02   7.393566E+02   7.440967E+02   7.397180E+02   7.426275E+02   7.339375E+02   7.288815E+02   7.198788E+02   7.411927E+02
   6.875982E+02   7.228813E+02   7.167876E+02   6.543571E+02   6.448364E+02   6.455178E+02   6.395881E+02   6.521683E+02   6.408857E+02   6.371140E+02   6.442928E+02   6.427130E+02   6.300126E+02   6.228290E+02   6.193929E+02   5.802005E+02   6.314400E+02   5.081497E+02   5.512573E+02   6.374815E+02   6.388066E+02   6.278773E+02   6.501577E+02   6.547246E+02   6.326759E+02   6.097255E+02   7.004677E+02   6.786556E+02   7.057470E+02   7.224283E+02   7.297092E+02   7.470366E+02   7.615651E+02   7.332773E+02   7.500283E+02   7.523986E+02   7.535681E+02   7.577488E+02   7.645717E+02   7.768365E+02   7.694985E+02   7.545175E+02   7.394547E+02   6.956717E+02   7.304239E+02   7.346483E+02   6.714561E+02   7.113815E+02   6.936854E+02   7.152287E+02   7.090311E+02   6.475950E+02   7.018121E+02   6.931286E+02   6.913586E+02   6.896746E+02   6.298718E+02   6.711025E+02   6.377921E+02   6.353663E+02   6.382275E+02   6.558910E+02   6.432542E+02   6.539113E+02   6.014827E+02   6.484711E+02   6.416147E+02   6.389388E+02   6.638055E+02   6.404792E+02   5.673379E+02   6.217067E+02   6.314271E+02   6.356446E+02   5.468459E+02   6.312069E+02   6.379002E+02   6.291362E+02   5.944732E+02   4.622589E+02   4.442505E+02   4.496546E+02   4.743929E+02   6.186731E+02   6.310871E+02   6.989529E+02   6.514726E+02   7.132554E+02   6.504962E+02   7.055720E+02   7.250657E+02   7.181678E+02   6.801487E+02   7.108739E+02   6.390645E+02   7.102123E+02   7.087494E+02   7.199653E+02   7.179742E+02   7.735759E+02   8.031027E+02   8.014813E+02   8.288668E+02   8.267598E+02   7.845057E+02   7.699340E+02   7.318567E+02   7.555169E+02   7.689788E+02   7.455106E+02   7.259987E+02   7.469726E+02   7.478085E+02   7.397307E+02   7.461890E+02   7.459407E+02   7.315301E+02   7.116990E+02   6.769631E+02   6.418163E+02   6.742036E+02   7.396459E+02   7.722290E+02   7.622328E+02   7.048590E+02   6.942565E+02   7.319741E+02   6.830833E+02   7.353629E+02   6.993310E+02   7.619835E+02   7.689033E+02   7.701472E+02   7.657287E+02   7.701246E+02   7.701049E+02   7.401311E+02   7.198589E+02   7.301141E+02   7.593459E+02   7.598911E+02   7.594448E+02   7.587607E+02   7.474562E+02   7.497214E+02   7.272178E+02   7.407207E+02   7.303104E+02   7.394404E+02   7.503339E+02
   6.909447E+02   7.081904E+02   6.901099E+02   6.507005E+02   6.397847E+02   6.227334E+02   6.429038E+02   6.670198E+02   6.303371E+02   5.868474E+02   5.745955E+02   6.297443E+02   6.284691E+02   5.871041E+02   6.307383E+02   6.290960E+02   5.818129E+02   5.169714E+02   5.249343E+02   6.329796E+02   6.500030E+02   6.606188E+02   6.105756E+02   6.815243E+02   6.569203E+02   7.023534E+02   7.091630E+02   7.028254E+02   7.230287E+02   7.327376E+02   7.347885E+02   7.388030E+02   7.436057E+02   7.451259E+02   7.492723E+02   7.460256E+02   7.467927E+02   7.528552E+02   7.577111E+02   7.827482E+02   7.674960E+02   7.470700E+02   7.446647E+02   7.225530E+02   7.360864E+02   6.636851E+02   7.074654E+02   6.616962E+02   6.542710E+02   6.917087E+02   7.009432E+02   6.982458E+02   6.786635E+02   6.748175E+02   6.357120E+02   6.698063E+02   5.811456E+02   6.535397E+02   6.023546E+02   6.481492E+02   5.638010E+02   6.410206E+02   6.243560E+02   6.095428E+02   6.309585E+02   6.093472E+02   6.288123E+02   6.470010E+02   6.396532E+02   6.193137E+02   6.266143E+02   5.609898E+02   6.183892E+02   6.326821E+02   6.286193E+02   5.902219E+02   6.257651E+02   5.909015E+02   6.371215E+02   4.444643E+02   4.446501E+02   4.449327E+02   4.989493E+02   5.398087E+02   6.597662E+02   7.213337E+02   7.388419E+02   7.074653E+02   7.325078E+02   7.313783E+02   7.236202E+02   7.325250E+02   7.219848E+02   7.235398E+02   7.200299E+02   7.113253E+02   7.098791E+02   7.124960E+02   7.286208E+02   7.396366E+02   7.474274E+02   8.043223E+02   8.219875E+02   8.232376E+02   7.992488E+02   7.584603E+02   7.192731E+02   7.242337E+02   7.182228E+02   7.577096E+02   7.597272E+02   7.446768E+02   7.398890E+02   7.411176E+02   7.495533E+02   7.415728E+02   7.354362E+02   6.474695E+02   6.189869E+02   7.161130E+02   6.807878E+02   7.319750E+02   7.667617E+02   8.033448E+02   7.666999E+02   6.781456E+02   7.558271E+02   7.371851E+02   7.349314E+02   6.977324E+02   7.018228E+02   7.751993E+02   7.708240E+02   7.851837E+02   7.799077E+02   7.698963E+02   7.429554E+02   7.198588E+02   7.198376E+02   7.481887E+02   7.581273E+02   7.647034E+02   7.602468E+02   7.503693E+02   7.496605E+02   7.489465E+02   7.481406E+02   7.198787E+02   7.462597E+02   7.513039E+02