# DRN package for  MODFLOW-2005, generated by Flopy.
     12086         0
     12086         0 # stress period 1
         1         1         1       673.40967           100.0
         1         1         2       669.15686           100.0
         1         1         3       665.92694           100.0
         1         1         4       649.49493           100.0
         1         1         5       660.24994           100.0
         1         1         6       627.19586           100.0
         1         1         7       652.06976           100.0
         1         1         8       650.40424           100.0
         1         1         9        674.6075           100.0
         1         1        10        645.9198           100.0
         1         1        11        677.7824           100.0
         1         1        12       646.70233           100.0
         1         1        13        676.2543           100.0
         1         1        14        662.8713           100.0
         1         1        15        659.0571           100.0
         1         1        16        644.8242           100.0
         1         1        25       556.68195           100.0
         1         1        26         602.394           100.0
         1         1        27         590.075           100.0
         1         1        28          574.96           100.0
         1         1        29        611.2701           100.0
         1         1        30         640.124           100.0
         1         1        31       660.73425           100.0
         1         1        32        691.5485           100.0
         1         1        33        687.6438           100.0
         1         1        34       677.96967           100.0
         1         1        35       608.11084           100.0
         1         1        36        677.7553           100.0
         1         1        37        605.8031           100.0
         1         1        38        641.7973           100.0
         1         1        39        672.8909           100.0
         1         1        40        673.7482           100.0
         1         1        41        629.1047           100.0
         1         1        42       699.65594           100.0
         1         1        43         709.819           100.0
         1         1        44       732.88544           100.0
         1         1        45       733.88257           100.0
         1         1        46        713.8389           100.0
         1         1        47         690.715           100.0
         1         1        48       711.50555           100.0
         1         1        49       711.10376           100.0
         1         1        50       735.91223           100.0
         1         1        51        686.1912           100.0
         1         1        52        709.4144           100.0
         1         1        53        724.2284           100.0
         1         1        54       730.26184           100.0
         1         1        55         698.071           100.0
         1         1        56       688.98926           100.0
         1         1        57        692.9502           100.0
         1         1        58        685.6894           100.0
         1         1        59        704.1611           100.0
         1         1        60       682.92285           100.0
         1         1        61        665.5029           100.0
         1         1        62        671.8807           100.0
         1         1        63       720.24884           100.0
         1         1        64       680.57477           100.0
         1         1        65       680.84064           100.0
         1         1        66        717.0226           100.0
         1         1        71       672.10944           100.0
         1         1        72        685.8052           100.0
         1         2         1       655.34564           100.0
         1         2         2       668.28326           100.0
         1         2         3        643.9317           100.0
         1         2         4        597.6102           100.0
         1         2         5        579.9863           100.0
         1         2         6        617.4274           100.0
         1         2         7        672.4041           100.0
         1         2         8       640.16736           100.0
         1         2         9        641.2895           100.0
         1         2        10       647.39404           100.0
         1         2        11        635.8524           100.0
         1         2        12       661.12366           100.0
         1         2        13        652.3718           100.0
         1         2        14        658.4038           100.0
         1         2        15       533.71655           100.0
         1         2        16       532.43494           100.0
         1         2        25        603.1961           100.0
         1         2        26        589.6464           100.0
         1         2        27       631.75653           100.0
         1         2        28          624.08           100.0
         1         2        29       638.16644           100.0
         1         2        30       649.66113           100.0
         1         2        31       659.74225           100.0
         1         2        32       683.32184           100.0
         1         2        33       671.74634           100.0
         1         2        34        683.6617           100.0
         1         2        35       668.17267           100.0
         1         2        36        670.1141           100.0
         1         2        37        752.6601           100.0
         1         2        38       663.18585           100.0
         1         2        39        699.8196           100.0
         1         2        40       718.25244           100.0
         1         2        41        663.0305           100.0
         1         2        42       701.40106           100.0
         1         2        43        714.4445           100.0
         1         2        44        758.6308           100.0
         1         2        45       728.15393           100.0
         1         2        46       663.90497           100.0
         1         2        47       709.06226           100.0
         1         2        48       723.00793           100.0
         1         2        49        737.3891           100.0
         1         2        50       680.25385           100.0
         1         2        51       718.33966           100.0
         1         2        52        730.8815           100.0
         1         2        53        747.0558           100.0
         1         2        54        733.0239           100.0
         1         2        55       699.67456           100.0
         1         2        56        719.1082           100.0
         1         2        57       708.41437           100.0
         1         2        58        692.7623           100.0
         1         2        59       699.82355           100.0
         1         2        60        703.1175           100.0
         1         2        61        680.1994           100.0
         1         2        62        700.2407           100.0
         1         2        63        730.0374           100.0
         1         2        64       673.85583           100.0
         1         2        65       721.32806           100.0
         1         2        66       707.25635           100.0
         1         2        71        697.9754           100.0
         1         2        72       724.19666           100.0
         1         2        67        594.2466           100.0
         1         2        68        651.7564           100.0
         1         2        69       653.35675           100.0
         1         2        70        622.8418           100.0
         1         2        73        694.2681           100.0
         1         2        74        662.7855           100.0
         1         2        75        565.6837           100.0
         1         2        76       609.01025           100.0
         1         2        77       586.70154           100.0
         1         3         1        649.3209           100.0
         1         3         2         669.369           100.0
         1         3         3       665.07886           100.0
         1         3         4       652.44354           100.0
         1         3         5        610.2608           100.0
         1         3         6       574.94354           100.0
         1         3         7       632.41766           100.0
         1         3         8        626.0441           100.0
         1         3         9        635.6977           100.0
         1         3        10        622.9444           100.0
         1         3        11       643.02496           100.0
         1         3        12        602.9398           100.0
         1         3        13       648.01025           100.0
         1         3        14       634.99884           100.0
         1         3        25        630.3372           100.0
         1         3        26         628.699           100.0
         1         3        27        634.2008           100.0
         1         3        28        635.7759           100.0
         1         3        29       644.57446           100.0
         1         3        30        597.9145           100.0
         1         3        31        649.7728           100.0
         1         3        32        681.5256           100.0
         1         3        33        693.2529           100.0
         1         3        34       698.42615           100.0
         1         3        35       704.70874           100.0
         1         3        36        715.5352           100.0
         1         3        37       722.93964           100.0
         1         3        38        719.7667           100.0
         1         3        39        712.4147           100.0
         1         3        40        713.3817           100.0
         1         3        41        704.4454           100.0
         1         3        42        660.2953           100.0
         1         3        43       709.11487           100.0
         1         3        51        701.6322           100.0
         1         3        52        736.7693           100.0
         1         3        53        750.2317           100.0
         1         3        54        727.4655           100.0
         1         3        55       722.18536           100.0
         1         3        56        688.1543           100.0
         1         3        57       739.73975           100.0
         1         3        58        691.3667           100.0
         1         3        59       723.02466           100.0
         1         3        60       719.67474           100.0
         1         3        61        700.6901           100.0
         1         3        62        670.2431           100.0
         1         3        63        736.8233           100.0
         1         3        64        742.0386           100.0
         1         3        65        738.8188           100.0
         1         3        66       702.83344           100.0
         1         3        67        595.4119           100.0
         1         3        68        583.6355           100.0
         1         3        69        675.0384           100.0
         1         3        70        633.6392           100.0
         1         3        71        700.1782           100.0
         1         3        72        722.8275           100.0
         1         3        73       709.69434           100.0
         1         3        74        705.9242           100.0
         1         3        75        649.6855           100.0
         1         3        76       573.65125           100.0
         1         3        77        614.5701           100.0
         1         4         1        628.6314           100.0
         1         4         2        618.4242           100.0
         1         4         3       650.57935           100.0
         1         4         4       644.40204           100.0
         1         4         5       625.60114           100.0
         1         4         6        570.7896           100.0
         1         4         7        571.5337           100.0
         1         4         8        631.8881           100.0
         1         4         9         602.088           100.0
         1         4        10         603.058           100.0
         1         4        11        626.1714           100.0
         1         4        12       639.05896           100.0
         1         4        13        644.1787           100.0
         1         4        14        639.0287           100.0
         1         4        25       630.13226           100.0
         1         4        26        625.6329           100.0
         1         4        27       612.62616           100.0
         1         4        28        625.6605           100.0
         1         4        29       607.28284           100.0
         1         4        30        634.6269           100.0
         1         4        31        648.6782           100.0
         1         4        32        645.3205           100.0
         1         4        33       677.22375           100.0
         1         4        34         684.761           100.0
         1         4        35         702.606           100.0
         1         4        36        720.9147           100.0
         1         4        37        735.7666           100.0
         1         4        38       729.98376           100.0
         1         4        39        719.7978           100.0
         1         4        40       719.45135           100.0
         1         4        41       719.27484           100.0
         1         4        42        708.5013           100.0
         1         4        43        730.9014           100.0
         1         4        51        719.1413           100.0
         1         4        52       759.87646           100.0
         1         4        53       751.37573           100.0
         1         4        54       731.13684           100.0
         1         4        55        740.4849           100.0
         1         4        56       689.16064           100.0
         1         4        57          751.93           100.0
         1         4        58       741.55804           100.0
         1         4        59        740.9831           100.0
         1         4        60        740.6423           100.0
         1         4        61       722.58905           100.0
         1         4        62        738.9899           100.0
         1         4        63        739.3607           100.0
         1         4        64        745.0592           100.0
         1         4        65        719.6327           100.0
         1         4        66       647.12683           100.0
         1         4        67        710.9034           100.0
         1         4        68        651.0174           100.0
         1         4        69        683.9047           100.0
         1         4        70        721.4259           100.0
         1         4        71        711.4295           100.0
         1         4        72        706.3437           100.0
         1         4        73        711.5684           100.0
         1         4        74         703.309           100.0
         1         4        75        687.5651           100.0
         1         4        76        700.2183           100.0
         1         4        77       698.54205           100.0
         1         5         1         605.545           100.0
         1         5         2       593.70667           100.0
         1         5         3        644.9219           100.0
         1         5         4       645.58746           100.0
         1         5         5         626.396           100.0
         1         5         6        589.0903           100.0
         1         5         7       566.16724           100.0
         1         5         8        564.7126           100.0
         1         5         9        563.7059           100.0
         1         5        10       614.40283           100.0
         1         5        11        554.1613           100.0
         1         5        12        554.0929           100.0
         1         5        13       614.84094           100.0
         1         5        14        581.3792           100.0
         1         5        25       559.71515           100.0
         1         5        26       574.04034           100.0
         1         5        27       630.40356           100.0
         1         5        28       643.40906           100.0
         1         5        29       653.17255           100.0
         1         5        30        667.0053           100.0
         1         5        31       660.41345           100.0
         1         5        32        659.4778           100.0
         1         5        33        682.3445           100.0
         1         5        34        700.5372           100.0
         1         5        35          710.82           100.0
         1         5        36        710.8768           100.0
         1         5        37        703.0978           100.0
         1         5        38       695.32776           100.0
         1         5        39       710.01587           100.0
         1         5        40        732.1141           100.0
         1         5        41       727.70123           100.0
         1         5        42        721.3001           100.0
         1         5        43        732.2637           100.0
         1         5        51        756.8995           100.0
         1         5        52         764.065           100.0
         1         5        53        768.6674           100.0
         1         5        54       759.81024           100.0
         1         5        55       744.84216           100.0
         1         5        56        749.1268           100.0
         1         5        57        750.8129           100.0
         1         5        58       745.55786           100.0
         1         5        59       734.47327           100.0
         1         5        60        731.2877           100.0
         1         5        61       721.17615           100.0
         1         5        62       738.60486           100.0
         1         5        63        740.3629           100.0
         1         5        64        729.7569           100.0
         1         5        65        723.3195           100.0
         1         5        66        720.8481           100.0
         1         5        67       715.70776           100.0
         1         5        68       701.83307           100.0
         1         5        69        681.7601           100.0
         1         5        70        733.9112           100.0
         1         5        71        720.2483           100.0
         1         5        72        659.4855           100.0
         1         5        73        708.2078           100.0
         1         5        74        680.6364           100.0
         1         5        75        697.2993           100.0
         1         5        76        702.5723           100.0
         1         5        77        690.0891           100.0
         1         6         1       653.38525           100.0
         1         6         2        612.7686           100.0
         1         6         3       616.51544           100.0
         1         6         4        579.7646           100.0
         1         6         5        629.6205           100.0
         1         6         6       573.25244           100.0
         1         6         7        632.1602           100.0
         1         6         8        636.9185           100.0
         1         6         9       633.58813           100.0
         1         6        10        638.5022           100.0
         1         6        11       597.57086           100.0
         1         6        12        557.9531           100.0
         1         6        13        591.1866           100.0
         1         6        14        538.6779           100.0
         1         6        25        612.1769           100.0
         1         6        26        586.1445           100.0
         1         6        27       626.26556           100.0
         1         6        28        640.2622           100.0
         1         6        29        656.0038           100.0
         1         6        30       668.02765           100.0
         1         6        31        678.6176           100.0
         1         6        32        682.0329           100.0
         1         6        33        662.5069           100.0
         1         6        34       669.48505           100.0
         1         6        35        678.8826           100.0
         1         6        36       657.99023           100.0
         1         6        37       726.91864           100.0
         1         6        38       729.37006           100.0
         1         6        39       731.66693           100.0
         1         6        40       736.58765           100.0
         1         6        41        733.0087           100.0
         1         6        42       734.56213           100.0
         1         6        43        759.3936           100.0
         1         6        51        773.6153           100.0
         1         6        52        782.6968           100.0
         1         6        53         750.732           100.0
         1         6        54        732.6343           100.0
         1         6        55        749.6991           100.0
         1         6        56         739.765           100.0
         1         6        57       740.26086           100.0
         1         6        58       729.83264           100.0
         1         6        59        721.9649           100.0
         1         6        60        724.0822           100.0
         1         6        61        700.2017           100.0
         1         6        62       724.69904           100.0
         1         6        63       721.08575           100.0
         1         6        64        732.6973           100.0
         1         6        65        726.2623           100.0
         1         6        66        728.7271           100.0
         1         6        67        723.7732           100.0
         1         6        68        701.8051           100.0
         1         6        69        708.6149           100.0
         1         6        70        720.5437           100.0
         1         6        71       688.20325           100.0
         1         6        72       662.84076           100.0
         1         6        73        688.2132           100.0
         1         6        74        691.2799           100.0
         1         6        75       690.78687           100.0
         1         7         1        648.5585           100.0
         1         7         2        618.1546           100.0
         1         7         3       603.00745           100.0
         1         7         4        593.0701           100.0
         1         7         5       612.17773           100.0
         1         7         6        630.3385           100.0
         1         7         7       599.73926           100.0
         1         7         8        628.2187           100.0
         1         7         9       633.21924           100.0
         1         7        10         635.281           100.0
         1         7        11       634.97766           100.0
         1         7        12        554.7415           100.0
         1         7        13       552.19867           100.0
         1         7        14        549.6452           100.0
         1         7        25        633.3662           100.0
         1         7        26         633.557           100.0
         1         7        27        651.0818           100.0
         1         7        28        660.0119           100.0
         1         7        29         670.621           100.0
         1         7        30        630.8025           100.0
         1         7        31       658.73126           100.0
         1         7        32       602.25726           100.0
         1         7        33       618.01556           100.0
         1         7        34       641.57904           100.0
         1         7        35        655.1172           100.0
         1         7        36        721.8493           100.0
         1         7        37         720.954           100.0
         1         7        38        732.7315           100.0
         1         7        39        735.4371           100.0
         1         7        40        746.0962           100.0
         1         7        41        745.1974           100.0
         1         7        42        762.2807           100.0
         1         7        43        766.3288           100.0
         1         7        51        782.1063           100.0
         1         7        52       749.31134           100.0
         1         7        53        754.2669           100.0
         1         7        54        733.3028           100.0
         1         7        55       740.90796           100.0
         1         7        56        729.5139           100.0
         1         7        57        718.9368           100.0
         1         7        58        720.9898           100.0
         1         7        59        682.4591           100.0
         1         7        60        704.7499           100.0
         1         7        61        702.8663           100.0
         1         7        62        714.3414           100.0
         1         7        63         719.697           100.0
         1         7        64       708.45483           100.0
         1         7        65       715.06226           100.0
         1         7        66       724.26276           100.0
         1         7        67        720.4706           100.0
         1         7        68        697.8451           100.0
         1         7        69        700.3456           100.0
         1         7        70        701.1575           100.0
         1         7        71        683.3292           100.0
         1         7        72        630.6292           100.0
         1         7        73        681.3872           100.0
         1         7        74       628.54193           100.0
         1         7        75        629.4433           100.0
         1         8         1        694.3453           100.0
         1         8         2        598.9964           100.0
         1         8         3       586.08527           100.0
         1         8         4       645.29474           100.0
         1         8         5        637.9451           100.0
         1         8         6        636.6621           100.0
         1         8         7        622.2479           100.0
         1         8         8       635.23914           100.0
         1         8         9       637.26025           100.0
         1         8        10        637.2792           100.0
         1         8        11        622.7115           100.0
         1         8        12        644.8977           100.0
         1         8        13        559.1879           100.0
         1         8        14       670.80994           100.0
         1         8        25       643.77313           100.0
         1         8        26       660.39954           100.0
         1         8        27        568.1606           100.0
         1         8        28       563.43256           100.0
         1         8        29        570.2716           100.0
         1         8        30       657.18317           100.0
         1         8        31        671.5007           100.0
         1         8        32        597.1083           100.0
         1         8        33       702.81995           100.0
         1         8        34        699.9726           100.0
         1         8        35        709.7792           100.0
         1         8        36        716.0101           100.0
         1         8        37       730.50183           100.0
         1         8        38        737.0651           100.0
         1         8        39       721.89996           100.0
         1         8        40        739.6944           100.0
         1         8        41       751.02985           100.0
         1         8        42       766.87415           100.0
         1         8        43       762.22815           100.0
         1         8        51       763.78015           100.0
         1         8        52        744.7712           100.0
         1         8        53       707.09924           100.0
         1         8        54       722.00134           100.0
         1         8        55        716.9787           100.0
         1         8        56        711.4398           100.0
         1         8        57        710.7463           100.0
         1         8        58        708.6558           100.0
         1         8        59        705.6607           100.0
         1         8        60        699.2365           100.0
         1         8        61        637.8977           100.0
         1         8        62       623.92255           100.0
         1         8        63       719.01764           100.0
         1         8        64       687.17566           100.0
         1         8        65       684.34393           100.0
         1         8        66       720.94006           100.0