# DIS package for  MODFLOW-2005, generated by Flopy.
         1       100       150         1         4         1
  0
CONSTANT    2.925653E+03                           #delr                          
CONSTANT    2.727600E+03                           #delc                          
INTERNAL               1 (150E15.6) -1 #model_top                     
   5.999869E+02   6.000259E+02   6.001842E+02   6.001389E+02   5.999075E+02   5.997603E+02   6.002560E+02   6.069588E+02   6.225334E+02   6.289965E+02   6.211649E+02   6.193914E+02   6.235265E+02   6.259539E+02   6.254972E+02   6.247121E+02   6.214484E+02   6.189964E+02   6.122296E+02   5.734343E+02   5.106003E+02   4.932105E+02   4.886243E+02   4.868985E+02   4.867011E+02   4.950081E+02   5.213693E+02   5.541069E+02   5.963990E+02   6.251244E+02   6.388242E+02   6.413525E+02   6.307830E+02   6.154701E+02   6.031390E+02   5.991635E+02   5.979781E+02   6.004080E+02   6.242913E+02   6.438978E+02   6.291047E+02   6.922078E+02   7.011458E+02   7.068704E+02   7.097703E+02   7.058348E+02   6.907150E+02   6.822418E+02   6.751466E+02   6.758395E+02   6.839291E+02   6.913721E+02   6.916528E+02   6.876536E+02   6.618254E+02   6.324498E+02   6.015450E+02   6.093328E+02   6.246986E+02   6.408084E+02   6.477650E+02   6.512302E+02   6.543188E+02   6.450703E+02   6.208009E+02   6.068456E+02   5.934421E+02   5.927553E+02   5.952040E+02   6.430152E+02   6.541490E+02   6.451069E+02   6.232242E+02   5.900171E+02   5.606265E+02   5.268719E+02   5.080787E+02   4.928068E+02   4.514899E+02   4.215106E+02   4.075704E+02   3.978206E+02   3.918206E+02   3.921554E+02   3.968418E+02   4.014099E+02   4.040069E+02   4.046305E+02   3.992480E+02   3.894294E+02   3.868860E+02   3.905717E+02   3.946606E+02   3.969702E+02   3.968446E+02   3.933515E+02   3.885319E+02   3.864614E+02   3.839464E+02   3.814926E+02   3.787819E+02   3.786458E+02   3.810830E+02   3.853184E+02   3.883191E+02   3.894104E+02   3.926761E+02   3.996606E+02   4.023373E+02   4.221660E+02   4.621734E+02   4.822799E+02   4.976295E+02   5.089118E+02   5.213671E+02   5.332929E+02   5.473560E+02   5.573724E+02   5.664505E+02   5.802295E+02   5.921823E+02   5.989131E+02   6.020557E+02   6.045598E+02   6.042017E+02   5.997098E+02   5.867834E+02   5.713901E+02   5.520995E+02   5.448436E+02   5.443575E+02   5.486010E+02   5.607339E+02   5.741991E+02   5.891098E+02   5.960969E+02   5.978216E+02   5.950463E+02   5.835543E+02   5.721353E+02   5.599846E+02   5.379340E+02   4.851944E+02   4.492721E+02   4.352513E+02   4.356200E+02   4.389114E+02   4.447704E+02   4.532630E+02   4.745394E+02
   5.999817E+02   6.000752E+02   6.001819E+02   5.976102E+02   5.799863E+02   5.994285E+02   6.010182E+02   6.069084E+02   6.127454E+02   6.082613E+02   6.000837E+02   6.027621E+02   6.091362E+02   6.085621E+02   5.337166E+02   5.324349E+02   5.620848E+02   6.021898E+02   6.071005E+02   5.606682E+02   4.974715E+02   4.862152E+02   4.914630E+02   4.970629E+02   5.007761E+02   5.234137E+02   5.645471E+02   5.974937E+02   6.250988E+02   6.433259E+02   6.499161E+02   6.502233E+02   6.502335E+02   6.467130E+02   6.275936E+02   6.098266E+02   6.012949E+02   6.051132E+02   6.158538E+02   6.337720E+02   6.581504E+02   6.924131E+02   7.027347E+02   7.080706E+02   7.111130E+02   6.639050E+02   7.039849E+02   6.964430E+02   6.982816E+02   6.802538E+02   7.019744E+02   7.090000E+02   7.087849E+02   7.028165E+02   6.794515E+02   6.581434E+02   6.378745E+02   6.304479E+02   6.371987E+02   6.494877E+02   6.500007E+02   6.524980E+02   6.574689E+02   6.565645E+02   6.502575E+02   6.362512E+02   5.942466E+02   6.212732E+02   6.417739E+02   6.228418E+02   6.713385E+02   6.628484E+02   6.455547E+02   6.227535E+02   5.656837E+02   5.644316E+02   5.369994E+02   5.107690E+02   4.595423E+02   4.266814E+02   4.087639E+02   3.982405E+02   3.938234E+02   3.945808E+02   3.983351E+02   4.011483E+02   4.030790E+02   4.031365E+02   3.999497E+02   3.957929E+02   3.901856E+02   3.891673E+02   3.899731E+02   3.899860E+02   3.899397E+02   3.868983E+02   3.849547E+02   3.841364E+02   3.833146E+02   3.824311E+02   3.816197E+02   3.815763E+02   3.827557E+02   3.839626E+02   3.849223E+02   3.858965E+02   3.876013E+02   3.957397E+02   4.010291E+02   4.171647E+02   4.508335E+02   4.693959E+02   4.900378E+02   5.001195E+02   5.122628E+02   5.262881E+02   5.428055E+02   5.551223E+02   5.637958E+02   5.780154E+02   5.902504E+02   5.967485E+02   5.995007E+02   5.999846E+02   5.994526E+02   5.883931E+02   5.682912E+02   5.557797E+02   5.425325E+02   5.404183E+02   5.438139E+02   5.490674E+02   5.599074E+02   5.713308E+02   5.835332E+02   5.895617E+02   5.897385E+02   5.845262E+02   5.701493E+02   5.574886E+02   5.446096E+02   5.220162E+02   4.830317E+02   4.528967E+02   4.407242E+02   4.439430E+02   4.462581E+02   4.482231E+02   4.573412E+02   4.742289E+02
   5.999989E+02   6.000046E+02   5.994855E+02   5.975751E+02   5.953595E+02   5.749435E+02   5.995466E+02   6.061924E+02   6.094717E+02   6.051443E+02   5.972169E+02   5.989062E+02   6.013810E+02   5.955958E+02   5.420206E+02   5.346878E+02   5.366716E+02   5.304761E+02   5.281542E+02   5.205266E+02   4.849303E+02   4.831288E+02   4.952461E+02   5.020043E+02   5.094986E+02   5.416631E+02   5.818323E+02   6.032662E+02   6.271688E+02   5.979145E+02   6.497728E+02   6.664243E+02   6.716642E+02   6.714608E+02   6.646773E+02   6.534872E+02   6.458414E+02   6.367568E+02   6.385162E+02   6.534277E+02   6.686711E+02   6.602953E+02   6.982774E+02   7.014719E+02   7.049011E+02   7.068835E+02   7.067612E+02   7.041680E+02   7.083169E+02   7.127621E+02   7.016322E+02   7.164715E+02   7.127244E+02   7.029270E+02   6.918455E+02   6.833494E+02   6.725864E+02   6.641519E+02   6.604361E+02   6.648195E+02   6.637371E+02   6.668774E+02   6.691157E+02   6.675870E+02   6.629142E+02   6.511477E+02   5.954119E+02   5.836355E+02   6.647079E+02   6.336392E+02   6.691451E+02   6.601340E+02   6.482115E+02   6.385264E+02   6.259237E+02   5.736512E+02   5.722629E+02   5.382455E+02   4.830295E+02   4.329632E+02   4.111607E+02   3.981785E+02   3.944159E+02   3.958986E+02   3.996131E+02   4.011708E+02   4.016882E+02   4.015032E+02   3.946118E+02   3.915241E+02   3.889694E+02   3.866843E+02   3.850681E+02   3.841429E+02   3.836622E+02   3.827367E+02   3.825209E+02   3.833190E+02   3.850859E+02   3.861667E+02   3.895995E+02   3.896352E+02   3.897176E+02   3.849038E+02   3.829360E+02   3.835466E+02   3.870776E+02   3.919989E+02   3.976328E+02   4.108034E+02   4.331310E+02   4.503635E+02   4.735531E+02   4.915701E+02   5.053026E+02   5.189459E+02   5.368339E+02   5.498767E+02   5.601856E+02   5.741585E+02   5.856145E+02   5.910097E+02   5.921528E+02   5.880311E+02   5.813563E+02   5.659355E+02   5.447373E+02   5.353405E+02   5.280457E+02   5.346366E+02   5.447299E+02   5.527234E+02   5.620933E+02   5.701577E+02   5.780707E+02   5.808447E+02   5.779617E+02   5.706032E+02   5.564359E+02   5.435994E+02   5.283829E+02   4.993860E+02   4.576497E+02   4.461869E+02   4.436658E+02   4.492866E+02   4.508335E+02   4.499576E+02   4.602035E+02   4.775809E+02
   5.999988E+02   5.998112E+02   5.983509E+02   5.939149E+02   5.880070E+02   5.707896E+02   5.715337E+02   5.992664E+02   6.020880E+02   6.030580E+02   5.835763E+02   5.703104E+02   5.923271E+02   5.962864E+02   5.594052E+02   5.117052E+02   5.009489E+02   5.008981E+02   5.011336E+02   4.931164E+02   4.744700E+02   4.775368E+02   4.905253E+02   4.969627E+02   5.020009E+02   5.329094E+02   5.663704E+02   5.840449E+02   6.065023E+02   6.346269E+02   6.486782E+02   6.453205E+02   6.772238E+02   6.826472E+02   6.813612E+02   6.753791E+02   6.694559E+02   6.591961E+02   6.599014E+02   6.759241E+02   6.919804E+02   6.964086E+02   6.992306E+02   6.998940E+02   7.009703E+02   7.032217E+02   7.055222E+02   7.078328E+02   7.114420E+02   7.161000E+02   7.191413E+02   7.194973E+02   7.144331E+02   7.023516E+02   6.979948E+02   6.891606E+02   6.905378E+02   6.841259E+02   6.798469E+02   6.843928E+02   6.837222E+02   6.834568E+02   6.796379E+02   6.738387E+02   6.676811E+02   6.471268E+02   6.587255E+02   6.510174E+02   6.668644E+02   6.673386E+02   6.620212E+02   6.543542E+02   6.487640E+02   6.442778E+02   6.368973E+02   6.203593E+02   5.930585E+02   5.564958E+02   5.059164E+02   4.438157E+02   4.148891E+02   3.979514E+02   3.941446E+02   3.960255E+02   3.996497E+02   4.003573E+02   4.001991E+02   3.989863E+02   3.913987E+02   3.902293E+02   3.884934E+02   3.849315E+02   3.823327E+02   3.809994E+02   3.807004E+02   3.807267E+02   3.816057E+02   3.844091E+02   3.887872E+02   3.931281E+02   4.026587E+02   4.044157E+02   4.006094E+02   3.875182E+02   3.852830E+02   3.846709E+02   3.871679E+02   3.899242E+02   3.961028E+02   4.045883E+02   4.223650E+02   4.420119E+02   4.612954E+02   4.812238E+02   4.997495E+02   5.114719E+02   5.296964E+02   5.455204E+02   5.561339E+02   5.702911E+02   5.813305E+02   5.857056E+02   5.843762E+02   5.759402E+02   5.655764E+02   5.532225E+02   5.317491E+02   5.182157E+02   5.137922E+02   5.304882E+02   5.473398E+02   5.577789E+02   5.653749E+02   5.707336E+02   5.751655E+02   5.751166E+02   5.697755E+02   5.597773E+02   5.512446E+02   5.361691E+02   5.149363E+02   4.803503E+02   4.502462E+02   4.466656E+02   4.451793E+02   4.588923E+02   4.593859E+02   4.499780E+02   4.697605E+02   4.873090E+02
   5.999936E+02   5.937067E+02   5.975823E+02   5.903663E+02   5.789785E+02   5.695483E+02   5.661672E+02   5.647126E+02   5.637059E+02   5.965391E+02   5.541613E+02   5.523461E+02   5.828625E+02   5.813792E+02   5.678121E+02   5.251189E+02   5.110776E+02   5.060767E+02   4.929967E+02   4.784534E+02   4.692018E+02   4.717444E+02   4.815022E+02   4.896005E+02   4.941531E+02   5.181848E+02   5.470860E+02   5.517342E+02   5.682405E+02   6.030610E+02   6.290480E+02   6.535012E+02   6.723623E+02   6.819747E+02   6.870901E+02   6.873078E+02   6.857207E+02   6.824842E+02   6.867216E+02   6.968167E+02   7.064432E+02   7.047904E+02   7.026270E+02   7.008052E+02   6.997888E+02   7.010081E+02   7.048538E+02   7.103059E+02   7.160712E+02   7.206111E+02   7.238674E+02   7.222972E+02   7.172492E+02   7.082794E+02   7.031298E+02   7.039384E+02   7.006164E+02   6.993598E+02   6.963177E+02   6.996163E+02   6.996232E+02   6.965920E+02   6.870254E+02   6.778795E+02   6.711647E+02   6.645388E+02   6.626372E+02   6.635325E+02   6.636107E+02   6.610372E+02   6.553273E+02   6.509453E+02   6.491843E+02   6.476291E+02   6.435103E+02   6.318110E+02   6.074653E+02   5.742375E+02   5.248062E+02   4.534448E+02   4.176990E+02   3.977889E+02   3.939562E+02   3.960783E+02   3.993224E+02   3.992884E+02   3.989118E+02   3.999630E+02   3.998335E+02   3.992851E+02   3.886938E+02   3.838682E+02   3.810683E+02   3.800856E+02   3.797990E+02   3.800924E+02   3.812242E+02   3.861858E+02   3.979760E+02   4.043217E+02   4.137593E+02   4.194636E+02   4.092341E+02   3.953189E+02   3.945627E+02   3.901831E+02   3.898481E+02   3.899247E+02   3.941291E+02   4.001538E+02   4.120755E+02   4.304392E+02   4.487815E+02   4.682895E+02   4.883728E+02   5.014471E+02   5.198612E+02   5.363735E+02   5.517141E+02   5.658657E+02   5.768436E+02   5.802280E+02   5.761379E+02   5.637817E+02   5.509139E+02   5.317109E+02   5.114288E+02   5.008530E+02   5.012723E+02   5.321083E+02   5.541768E+02   5.644383E+02   5.694372E+02   5.719927E+02   5.731427E+02   5.706849E+02   5.636003E+02   5.533445E+02   5.429962E+02   5.245881E+02   5.012754E+02   4.607867E+02   4.456053E+02   4.504852E+02   4.476025E+02   4.796186E+02   4.877236E+02   4.615104E+02   4.926169E+02   4.994849E+02
   6.001362E+02   6.004485E+02   5.984863E+02   5.797646E+02   5.751739E+02   5.604286E+02   5.476726E+02   5.443071E+02   5.468335E+02   5.541926E+02   5.482417E+02   5.433292E+02   5.682740E+02   5.386779E+02   5.834580E+02   5.640624E+02   5.596946E+02   5.523345E+02   5.063760E+02   4.769787E+02   4.720492E+02   4.768522E+02   4.935959E+02   5.200248E+02   5.403691E+02   5.539424E+02   5.705577E+02   5.712346E+02   5.582299E+02   5.531453E+02   5.618044E+02   5.924718E+02   6.301252E+02   6.551715E+02   6.727336E+02   6.579902E+02   6.932637E+02   6.973548E+02   6.999653E+02   7.089103E+02   7.122429E+02   7.101620E+02   7.066982E+02   7.027159E+02   7.003214E+02   7.010978E+02   7.060132E+02   7.133577E+02   7.199449E+02   7.240164E+02   7.257973E+02   7.224483E+02   7.168633E+02   7.099074E+02   7.077418E+02   7.103145E+02   7.131312E+02   7.113630E+02   7.082825E+02   7.044837E+02   7.002017E+02   6.992635E+02   6.872638E+02   6.763973E+02   6.708297E+02   6.656194E+02   6.623755E+02   6.599461E+02   6.575807E+02   6.536221E+02   6.502686E+02   6.498813E+02   6.497770E+02   6.489996E+02   6.469899E+02   6.406761E+02   6.237994E+02   5.954141E+02   5.420762E+02   4.550809E+02   4.171593E+02   3.978634E+02   3.946294E+02   3.971372E+02   3.998017E+02   3.986742E+02   3.984322E+02   4.104831E+02   4.184675E+02   4.063913E+02   3.910462E+02   3.851439E+02   3.815647E+02   3.801640E+02   3.799777E+02   3.800071E+02   3.813034E+02   3.898238E+02   4.101346E+02   4.228794E+02   4.328822E+02   4.391503E+02   4.375586E+02   4.264117E+02   4.158207E+02   4.078169E+02   3.977101E+02   3.878893E+02   3.917700E+02   3.960217E+02   4.042242E+02   4.229856E+02   4.461082E+02   4.553308E+02   4.751558E+02   4.926606E+02   5.030662E+02   5.220403E+02   5.412593E+02   5.592695E+02   5.701124E+02   5.723486E+02   5.637048E+02   5.449701E+02   5.300975E+02   5.034343E+02   4.916564E+02   4.906286E+02   5.064077E+02   5.495169E+02   5.668985E+02   5.734268E+02   5.741956E+02   5.733578E+02   5.707640E+02   5.658066E+02   5.575750E+02   5.400679E+02   5.229170E+02   5.003189E+02   4.719928E+02   4.270360E+02   4.172588E+02   4.478168E+02   4.477758E+02   4.759810E+02   5.000191E+02   4.943491E+02   5.006096E+02   5.005066E+02
   6.002274E+02   6.004304E+02   5.992073E+02   5.930701E+02   5.816522E+02   5.689227E+02   5.528881E+02   5.461069E+02   5.408544E+02   5.316063E+02   5.240218E+02   5.283150E+02   5.521987E+02   5.496452E+02   5.851644E+02   5.755306E+02   5.664117E+02   5.512936E+02   5.045485E+02   4.818613E+02   4.830690E+02   4.962956E+02   5.329519E+02   5.761869E+02   5.950349E+02   5.969791E+02   5.951619E+02   5.943192E+02   5.946379E+02   5.803917E+02   5.577252E+02   5.545002E+02   5.779319E+02   6.142571E+02   6.417941E+02   6.656707E+02   6.882345E+02   7.022906E+02   7.072934E+02   7.136058E+02   7.138869E+02   7.112860E+02   7.079041E+02   7.038641E+02   7.012686E+02   7.028248E+02   7.086675E+02   7.157272E+02   7.214237E+02   7.246698E+02   7.250472E+02   7.200723E+02   7.139636E+02   7.075964E+02   7.067427E+02   7.114222E+02   7.168978E+02   7.151714E+02   6.824591E+02   6.962684E+02   6.872020E+02   6.804172E+02   6.752974E+02   6.717330E+02   6.682957E+02   6.643840E+02   6.602122E+02   6.569738E+02   6.539959E+02   6.491229E+02   6.480010E+02   6.306292E+02   6.479860E+02   6.285419E+02   6.294433E+02   6.444069E+02   6.343856E+02   6.119696E+02   5.518512E+02   4.568228E+02   4.169087E+02   3.980632E+02   3.957015E+02   3.988865E+02   4.001059E+02   3.985378E+02   4.022614E+02   4.177374E+02   4.250680E+02   4.094046E+02   3.936147E+02   3.878474E+02   3.844767E+02   3.826952E+02   3.809652E+02   3.811160E+02   3.838652E+02   3.988983E+02   4.272564E+02   4.398980E+02   4.530503E+02   4.627357E+02   4.638231E+02   4.559429E+02   4.323013E+02   4.135794E+02   3.996454E+02   3.836165E+02   3.848152E+02   3.870941E+02   4.018763E+02   4.175724E+02   4.373553E+02   4.480341E+02   4.638305E+02   4.781433E+02   4.947186E+02   5.065018E+02   5.261996E+02   5.486913E+02   5.621079E+02   5.638675E+02   5.486587E+02   5.206234E+02   5.063621E+02   4.918047E+02   4.899766E+02   5.010985E+02   5.307561E+02   5.639084E+02   5.751087E+02   5.783518E+02   5.764641E+02   5.733183E+02   5.677455E+02   5.607460E+02   5.484134E+02   5.235518E+02   5.056017E+02   4.804060E+02   4.466492E+02   4.070424E+02   4.228419E+02   4.500117E+02   4.479228E+02   4.677076E+02   4.958037E+02   4.995409E+02   5.004384E+02   4.999851E+02
   6.003155E+02   5.989964E+02   5.860853E+02   5.994318E+02   5.953786E+02   5.908623E+02   5.798484E+02   5.709142E+02   5.494784E+02   5.176304E+02   4.987830E+02   5.082927E+02   5.511553E+02   5.760419E+02   5.791492E+02   5.700527E+02   5.538644E+02   5.279358E+02   4.967273E+02   4.877365E+02   4.992266E+02   5.285261E+02   5.758513E+02   6.001559E+02   5.940952E+02   5.845994E+02   5.681606E+02   5.634326E+02   5.702716E+02   5.989062E+02   5.871174E+02   5.906099E+02   5.929534E+02   5.947675E+02   5.989810E+02   6.255316E+02   6.675524E+02   7.062831E+02   7.141469E+02   7.132432E+02   7.117230E+02   7.092596E+02   7.068994E+02   7.047394E+02   7.051048E+02   7.090259E+02   7.133939E+02   7.169211E+02   7.193289E+02   7.213298E+02   7.202353E+02   7.128685E+02   7.061528E+02   7.004890E+02   6.982701E+02   7.037302E+02   7.076976E+02   7.029028E+02   6.721359E+02   6.650031E+02   6.378977E+02   6.239225E+02   6.517549E+02   6.561898E+02   6.557718E+02   6.548392E+02   6.539415E+02   6.524460E+02   6.105800E+02   6.452870E+02   6.416258E+02   6.001596E+02   6.411360E+02   6.068197E+02   6.291904E+02   5.858669E+02   6.423727E+02   5.939963E+02   5.694832E+02   4.676033E+02   4.187467E+02   3.987504E+02   3.980329E+02   3.999224E+02   4.032542E+02   4.097339E+02   4.175303E+02   4.314209E+02   4.351988E+02   4.278383E+02   4.114857E+02   4.047013E+02   3.926034E+02   3.872043E+02   3.834685E+02   3.843795E+02   3.911722E+02   4.103050E+02   4.342036E+02   4.544420E+02   4.766241E+02   4.898566E+02   4.950583E+02   4.890353E+02   4.487592E+02   4.193997E+02   3.995012E+02   3.776810E+02   3.732997E+02   3.753661E+02   3.933965E+02   4.089598E+02   4.270835E+02   4.408039E+02   4.514306E+02   4.578896E+02   4.731023E+02   4.832617E+02   5.043934E+02   5.314421E+02   5.488333E+02   5.481985E+02   5.230819E+02   4.934495E+02   4.878345E+02   4.922545E+02   5.101659E+02   5.370037E+02   5.641091E+02   5.779638E+02   5.820085E+02   5.814255E+02   5.770523E+02   5.715504E+02   5.617811E+02   5.534908E+02   5.247404E+02   5.046310E+02   4.951280E+02   4.609028E+02   4.277637E+02   4.084841E+02   4.416899E+02   4.539954E+02   4.477527E+02   4.567087E+02   4.850145E+02   5.021822E+02   4.983512E+02   4.942765E+02
   6.011845E+02   6.011387E+02   6.016854E+02   6.023965E+02   6.026118E+02   6.021335E+02   5.987899E+02   5.976897E+02   5.677608E+02   5.197859E+02   4.922598E+02   4.987938E+02   5.387532E+02   5.673782E+02   5.699600E+02   5.567517E+02   5.375378E+02   5.065524E+02   4.886561E+02   4.919208E+02   5.038618E+02   5.260124E+02   5.493854E+02   5.500030E+02   5.370480E+02   5.434286E+02   5.843901E+02   6.012997E+02   6.047289E+02   6.067372E+02   6.059097E+02   6.128176E+02   6.199185E+02   6.151147E+02   6.032580E+02   6.132034E+02   6.457089E+02   6.960468E+02   7.071125E+02   7.068849E+02   7.066516E+02   7.054090E+02   7.042910E+02   7.038434E+02   7.062931E+02   7.116663E+02   7.145194E+02   7.137045E+02   7.115209E+02   7.126238E+02   7.113911E+02   7.021729E+02   6.971688E+02   6.908466E+02   6.839872E+02   6.808745E+02   6.763083E+02   6.640560E+02   6.323922E+02   6.162607E+02   6.273831E+02   6.281385E+02   6.355281E+02   6.298916E+02   6.421774E+02   6.428738E+02   6.436132E+02   6.438896E+02   6.411193E+02   6.362941E+02   5.863577E+02   6.036156E+02   6.315977E+02   6.314798E+02   5.515775E+02   6.379238E+02   6.451776E+02   6.421429E+02   6.062761E+02   4.542721E+02   4.167486E+02   3.993182E+02   4.092445E+02   4.126244E+02   4.258556E+02   4.399726E+02   4.409977E+02   4.399440E+02   4.479081E+02   4.448482E+02   4.270192E+02   4.194998E+02   4.018772E+02   3.905262E+02   3.860987E+02   3.863863E+02   3.914641E+02   4.065863E+02   4.261285E+02   4.469088E+02   4.734965E+02   4.851751E+02   4.979340E+02   4.934564E+02   4.544221E+02   4.229122E+02   3.989445E+02   3.713028E+02   3.671807E+02   3.719855E+02   3.900707E+02   4.050511E+02   4.203392E+02   4.337652E+02   4.432192E+02   4.468019E+02   4.572688E+02   4.671151E+02   4.893656E+02   5.094892E+02   5.258664E+02   5.187635E+02   4.876661E+02   4.779157E+02   4.864239E+02   5.052835E+02   5.420345E+02   5.624420E+02   5.774951E+02   5.833845E+02   5.839586E+02   5.813147E+02   5.754966E+02   5.686898E+02   5.571890E+02   5.397289E+02   5.077450E+02   4.994319E+02   4.958765E+02   4.583549E+02   4.355530E+02   4.347148E+02   4.512200E+02   4.525776E+02   4.435769E+02   4.454209E+02   4.705864E+02   4.997908E+02   4.933146E+02   4.841016E+02
   6.028146E+02   6.036971E+02   6.043724E+02   6.049944E+02   6.047929E+02   6.028724E+02   6.000554E+02   6.030302E+02   5.836999E+02   5.308087E+02   4.921615E+02   4.935853E+02   5.236705E+02   5.549565E+02   5.577342E+02   5.474053E+02   5.181367E+02   4.955800E+02   4.851931E+02   4.907696E+02   4.972823E+02   4.992511E+02   5.043755E+02   5.106278E+02   5.230270E+02   5.615429E+02   6.113691E+02   6.336656E+02   6.561476E+02   6.644279E+02   6.645670E+02   6.630383E+02   6.586023E+02   6.398646E+02   6.464212E+02   6.366138E+02   6.446766E+02   6.839691E+02   6.986545E+02   7.001852E+02   7.015504E+02   7.014174E+02   7.013453E+02   7.012723E+02   7.029204E+02   7.079307E+02   7.072636E+02   7.039481E+02   6.957777E+02   6.932710E+02   6.907781E+02   6.835289E+02   6.787309E+02   6.735680E+02   6.632109E+02   6.493723E+02   6.418913E+02   6.296862E+02   6.085467E+02   6.011010E+02   5.789916E+02   6.102133E+02   6.169976E+02   6.240997E+02   6.268597E+02   6.282053E+02   6.297017E+02   6.307018E+02   6.291729E+02   5.749447E+02   6.210944E+02   5.821572E+02   6.192552E+02   6.203349E+02   6.073195E+02   6.316883E+02   6.343974E+02   6.301096E+02   6.072208E+02   4.636335E+02   4.485476E+02   3.988948E+02   4.174431E+02   4.315960E+02   4.510753E+02   4.631670E+02   4.622503E+02   4.537816E+02   4.576596E+02   4.637160E+02   4.469617E+02   4.326230E+02   4.087525E+02   3.947173E+02   3.884365E+02   3.890913E+02   3.943951E+02   4.036884E+02   4.157916E+02   4.315057E+02   4.577599E+02   4.797485E+02   4.874028E+02   4.860739E+02   4.537952E+02   4.277333E+02   3.995507E+02   3.711485E+02   3.633490E+02   3.663113E+02   3.830197E+02   3.985517E+02   4.147388E+02   4.284559E+02   4.384298E+02   4.430428E+02   4.485408E+02   4.598179E+02   4.780848E+02   4.915334E+02   4.868195E+02   4.746732E+02   4.539785E+02   4.749916E+02   5.010090E+02   5.321749E+02   5.638368E+02   5.762000E+02   5.829719E+02   5.840226E+02   5.826273E+02   5.785921E+02   5.710839E+02   5.623284E+02   5.484643E+02   5.171053E+02   5.012041E+02   5.001398E+02   4.916240E+02   4.635211E+02   4.494042E+02   4.513911E+02   4.525554E+02   4.481877E+02   4.385045E+02   4.375621E+02   4.520010E+02   4.751152E+02   4.759431E+02   4.692910E+02
   6.045248E+02   6.060557E+02   6.066759E+02   6.072240E+02   6.077895E+02   6.076704E+02   6.084986E+02   6.106080E+02   5.958743E+02   5.462426E+02   5.002468E+02   4.912798E+02   5.030989E+02   5.261862E+02   5.329852E+02   5.258028E+02   5.043744E+02   4.895903E+02   4.824450E+02   4.871167E+02   4.943580E+02   5.030181E+02   5.322405E+02   5.695211E+02   5.855797E+02   5.986411E+02   6.373304E+02   6.671000E+02   6.987355E+02   7.024933E+02   6.790889E+02   7.062762E+02   6.940543E+02   6.914373E+02   6.871380E+02   6.754070E+02   6.715734E+02   6.830211E+02   6.962982E+02   6.984832E+02   6.991539E+02   6.997719E+02   7.001729E+02   6.990857E+02   6.921977E+02   6.829551E+02   6.582930E+02   6.681407E+02   6.640959E+02   6.564048E+02   6.473321E+02   6.462922E+02   6.461118E+02   6.457094E+02   6.379069E+02   6.226661E+02   6.134821E+02   6.069172E+02   6.005927E+02   5.927394E+02   5.998820E+02   5.998429E+02   6.021203E+02   6.083568E+02   6.106757E+02   6.107126E+02   6.124230E+02   6.148593E+02   6.147073E+02   6.115474E+02   6.076752E+02   5.853739E+02   6.043176E+02   6.073568E+02   6.123799E+02   5.974078E+02   6.363442E+02   6.378865E+02   6.132571E+02   4.602801E+02   4.435546E+02   3.971418E+02   4.030611E+02   4.231179E+02   4.577786E+02   4.820979E+02   4.842193E+02   4.828328E+02   4.740911E+02   4.853979E+02   4.825389E+02   4.555540E+02   4.170683E+02   3.988440E+02   3.879530E+02   3.889518E+02   3.948133E+02   4.001644E+02   4.088777E+02   4.166076E+02   4.366422E+02   4.559659E+02   4.638029E+02   4.669569E+02   4.458338E+02   4.252698E+02   3.980197E+02   3.710141E+02   3.616535E+02   3.614378E+02   3.761597E+02   3.951805E+02   4.093153E+02   4.243426E+02   4.378550E+02   4.446384E+02   4.497648E+02   4.585404E+02   4.631041E+02   4.517172E+02   4.288214E+02   4.286781E+02   4.554425E+02   5.030630E+02   5.388715E+02   5.643932E+02   5.789394E+02   5.829595E+02   5.826177E+02   5.798210E+02   5.768995E+02   5.712009E+02   5.602120E+02   5.469043E+02   5.231628E+02   5.005325E+02   4.990141E+02   4.988379E+02   4.842643E+02   4.610814E+02   4.506780E+02   4.488768E+02   4.462952E+02   4.411630E+02   4.333781E+02   4.313876E+02   4.371050E+02   4.481534E+02   4.538251E+02   4.531586E+02
   6.050299E+02   6.065212E+02   6.068716E+02   6.078965E+02   6.111523E+02   6.147379E+02   6.183593E+02   6.150911E+02   5.962670E+02   5.480945E+02   5.023775E+02   4.932902E+02   4.968824E+02   5.082993E+02   5.140829E+02   5.104999E+02   4.983884E+02   4.887433E+02   4.838101E+02   5.016262E+02   5.258825E+02   5.439648E+02   5.665820E+02   5.951886E+02   5.998669E+02   6.011276E+02   6.355078E+02   6.660416E+02   6.972623E+02   7.087091E+02   7.123783E+02   7.099473E+02   7.035507E+02   7.039878E+02   7.037104E+02   6.974928E+02   6.964134E+02   6.952998E+02   6.994310E+02   6.997213E+02   6.998172E+02   7.006795E+02   7.014117E+02   6.956717E+02   6.830953E+02   6.450723E+02   6.190035E+02   6.217781E+02   6.274901E+02   6.281983E+02   6.239354E+02   6.232383E+02   6.228588E+02   6.205573E+02   6.128965E+02   6.032715E+02   6.021022E+02   6.011756E+02   6.003677E+02   5.999629E+02   5.996804E+02   5.997794E+02   6.008661E+02   6.031748E+02   6.014827E+02   6.013162E+02   6.028708E+02   6.062303E+02   6.068063E+02   6.043842E+02   5.673379E+02   6.004651E+02   5.997338E+02   6.021072E+02   5.468459E+02   6.172125E+02   6.305740E+02   6.267390E+02   5.944732E+02   4.622589E+02   4.409066E+02   3.950491E+02   3.949053E+02   4.193611E+02   4.688043E+02   5.047267E+02   5.112739E+02   5.085674E+02   5.008761E+02   5.085807E+02   5.235485E+02   4.941956E+02   4.446880E+02   4.164667E+02   3.924699E+02   3.887342E+02   3.930771E+02   3.999825E+02   4.065756E+02   4.110897E+02   4.193316E+02   4.299939E+02   4.354080E+02   4.393132E+02   4.299529E+02   4.183209E+02   3.942424E+02   3.706366E+02   3.617584E+02   3.598762E+02   3.715378E+02   3.883096E+02   4.043616E+02   4.216561E+02   4.394969E+02   4.492154E+02   4.528196E+02   4.552726E+02   4.458954E+02   4.149770E+02   3.983419E+02   4.249858E+02   4.839467E+02   5.368923E+02   5.626996E+02   5.794764E+02   5.844171E+02   5.830044E+02   5.783518E+02   5.732881E+02   5.693096E+02   5.617264E+02   5.454340E+02   5.255923E+02   5.020560E+02   4.958383E+02   4.996767E+02   4.953917E+02   4.763811E+02   4.556079E+02   4.475405E+02   4.433379E+02   4.406450E+02   4.379422E+02   4.334240E+02   4.323052E+02   4.353601E+02   4.415462E+02   4.469584E+02   4.479018E+02
   6.050838E+02   6.060856E+02   6.055558E+02   6.067162E+02   6.131473E+02   6.200956E+02   6.240985E+02   6.154527E+02   5.919338E+02   5.432383E+02   5.069187E+02   4.981990E+02   4.970462E+02   5.006241E+02   5.029503E+02   5.026154E+02   4.954016E+02   4.884064E+02   4.927393E+02   5.358863E+02   5.641674E+02   5.924921E+02   6.015519E+02   6.021887E+02   6.013834E+02   6.037516E+02   6.268864E+02   6.489880E+02   6.757793E+02   6.941822E+02   7.006144E+02   7.038846E+02   7.039225E+02   7.055828E+02   7.070156E+02   7.062397E+02   7.058401E+02   7.012271E+02   7.031859E+02   7.028062E+02   7.025806E+02   7.028281E+02   7.031704E+02   7.036125E+02   6.864694E+02   6.371504E+02   6.032947E+02   5.990895E+02   6.009736E+02   6.062708E+02   6.083851E+02   6.086732E+02   6.073166E+02   6.038524E+02   5.993121E+02   5.981968E+02   5.811456E+02   6.010135E+02   6.003512E+02   5.994210E+02   5.638010E+02   5.998504E+02   6.007327E+02   6.017414E+02   6.014619E+02   6.000869E+02   6.004929E+02   6.024662E+02   6.032000E+02   6.016098E+02   5.999044E+02   5.609898E+02   5.992927E+02   6.003120E+02   6.020802E+02   5.902219E+02   6.190349E+02   5.909015E+02   5.840740E+02   4.444643E+02   4.313836E+02   3.884756E+02   3.937791E+02   4.338298E+02   5.012224E+02   5.408240E+02   5.473513E+02   5.409027E+02   5.344694E+02   5.368698E+02   5.443371E+02   5.179598E+02   4.750308E+02   4.456461E+02   4.072233E+02   3.876846E+02   3.867263E+02   3.902418E+02   4.026339E+02   4.062455E+02   4.087596E+02   4.140517E+02   4.168623E+02   4.179136E+02   4.157853E+02   4.089551E+02   3.897394E+02   3.707140E+02   3.619763E+02   3.599673E+02   3.689133E+02   3.822081E+02   3.982587E+02   4.186876E+02   4.392416E+02   4.501670E+02   4.521625E+02   4.381893E+02   4.144352E+02   3.938395E+02   4.037819E+02   4.467546E+02   5.156461E+02   5.622789E+02   5.804174E+02   5.880593E+02   5.855099E+02   5.797626E+02   5.717619E+02   5.649868E+02   5.600909E+02   5.502048E+02   5.285068E+02   5.070214E+02   4.950915E+02   4.964801E+02   4.992105E+02   4.889689E+02   4.676514E+02   4.498402E+02   4.438414E+02   4.399431E+02   4.398041E+02   4.432612E+02   4.430085E+02   4.422868E+02   4.432634E+02   4.452294E+02   4.470954E+02   4.479044E+02