# RIV package for  MODFLOW-2005, generated by Flopy.
       358         0
       358         0 # stress period 1
         1        50        31       489.23557         50000.0       484.23557
         1        49        31       501.73163         50000.0       496.73163
         1        48        31       493.27048         50000.0       488.27048
         1        48         1       440.03275         50000.0       435.03275
         1        48         2       439.18182         50000.0       434.18182
         1        47         2       438.89273         50000.0       433.89273
         1        47        31       490.09143         50000.0       485.09143
         1        47         3       442.55563         50000.0       437.55563
         1        46         3       439.43262         50000.0       434.43262
         1        46        31        494.8498         50000.0        489.8498
         1        46         4        440.3609         50000.0        435.3609
         1        45         3         440.328         50000.0         435.328
         1        45         4       440.31155         50000.0       435.31155
         1        45         5       435.33072         50000.0       430.33072
         1        45        31        490.3791         50000.0        485.3791
         1        45        57        606.7539         50000.0        601.7539
         1        45        59       601.28033         50000.0       596.28033
         1        45        60        609.6617         50000.0        604.6617
         1        45        54       567.69934         50000.0       562.69934
         1        45        56        579.3056         50000.0        574.3056
         1        45        55        570.0175         50000.0        565.0175
         1        45        58       588.55347         50000.0       583.55347
         1        45        61       593.56244         50000.0       588.56244
         1        44         3        440.2936         50000.0        435.2936
         1        44        13       444.96295         50000.0       439.96295
         1        44        14       449.69482         50000.0       444.69482
         1        44        15       449.73676         50000.0       444.73676
         1        44        16       444.71262         50000.0       439.71262
         1        44         5       440.01526         50000.0       435.01526
         1        44        11       441.19193         50000.0       436.19193
         1        44        12       443.65802         50000.0       438.65802
         1        44        31       480.92667         50000.0       475.92667
         1        44        58        589.4071         50000.0        584.4071
         1        44        54          562.43         50000.0          557.43
         1        44        61       589.74585         50000.0       584.74585
         1        44        62        599.2551         50000.0        594.2551
         1        44        59       583.41705         50000.0       578.41705
         1        44        10        449.0461         50000.0        444.0461
         1        44         9       438.34738         50000.0       433.34738
         1        44        53       564.76514         50000.0       559.76514
         1        44         8       437.50952         50000.0       432.50952
         1        44        32       486.32562         50000.0       481.32562
         1        44        17       449.66217         50000.0       444.66217
         1        44         4       440.39874         50000.0       435.39874
         1        44         7       445.74072         50000.0       440.74072
         1        44         6        438.1266         50000.0        433.1266
         1        44        18       453.52756         50000.0       448.52756
         1        43         4       440.45932         50000.0       435.45932
         1        43         5        440.5578         50000.0        435.5578
         1        43         6        454.2051         50000.0        449.2051
         1        43         7       443.07465         50000.0       438.07465
         1        43        17       444.93018         50000.0       439.93018
         1        43        18       453.70938         50000.0       448.70938
         1        43        32        492.7623         50000.0        487.7623
         1        43        52       561.58386         50000.0       556.58386
         1        43        53        556.2254         50000.0        551.2254
         1        43        62       595.53186         50000.0       590.53186
         1        43        19        451.5143         50000.0        446.5143
         1        43        31        480.4052         50000.0        475.4052
         1        43        20       455.47305         50000.0       450.47305
         1        43        46       529.72125         50000.0       524.72125
         1        43        47       525.65643         50000.0       520.65643
         1        42         5       440.87476         50000.0       435.87476
         1        42        20         449.672         50000.0         444.672
         1        42        31       478.10117         50000.0       473.10117
         1        42        46        523.9762         50000.0        518.9762
         1        42        52        547.1879         50000.0        542.1879
         1        42        47        520.4194         50000.0        515.4194
         1        42        62        604.6278         50000.0        599.6278
         1        42        48       577.50946         50000.0       572.50946
         1        42        45        522.4595         50000.0        517.4595
         1        42        53        555.3967         50000.0        550.3967
         1        42        63        600.5012         50000.0        595.5012
         1        42        21        460.0539         50000.0        455.0539
         1        42        71       629.28876         50000.0       624.28876
         1        42        72        625.9755         50000.0        620.9755
         1        42        74        655.0371         50000.0        650.0371
         1        42        73       650.19464         50000.0       645.19464
         1        42        22       459.83057         50000.0       454.83057
         1        42        23       454.69183         50000.0       449.69183
         1        42        32         479.496         50000.0         474.496
         1        42        44       519.39404         50000.0       514.39404
         1        42        67        625.4814         50000.0        620.4814
         1        42        70       638.80725         50000.0       633.80725
         1        41         5       440.70145         50000.0       435.70145
         1        41        23       454.65878         50000.0       449.65878
         1        41        31       476.69687         50000.0       471.69687
         1        41        32       479.65875         50000.0       474.65875
         1        41        53         550.316         50000.0         545.316
         1        41        48       530.76587         50000.0       525.76587
         1        41        44       518.40094         50000.0       513.40094
         1        41        72        632.9096         50000.0        627.9096
         1        41        73        634.8144         50000.0        629.8144
         1        41        74        644.2158         50000.0        639.2158
         1        41        63        605.3594         50000.0        600.3594
         1        41        64       610.06244         50000.0       605.06244
         1        41        67        624.5786         50000.0        619.5786
         1        41        70       646.90784         50000.0       641.90784
         1        41        68        642.3597         50000.0        637.3597
         1        41        65        622.9675         50000.0        617.9675
         1        41        66        627.5137         50000.0        622.5137
         1        41        24        468.0004         50000.0        463.0004
         1        41        75        642.4922         50000.0        637.4922
         1        41        69       645.30566         50000.0       640.30566
         1        41         6        440.7843         50000.0        435.7843
         1        41        43       512.71295         50000.0       507.71295
         1        41        49       539.19293         50000.0       534.19293
         1        41        42       532.03015         50000.0       527.03015
         1        40         6        440.7843         50000.0        435.7843
         1        40        24        459.8998         50000.0        454.8998
         1        40        32       468.15173         50000.0       463.15173
         1        40        43        509.2883         50000.0        504.2883
         1        40        49        539.7309         50000.0        534.7309
         1        40        53        549.5907         50000.0        544.5907
         1        40        42       504.54422         50000.0       499.54422
         1        40        75       655.10675         50000.0       650.10675
         1        40        66         610.689         50000.0         605.689
         1        40        67       662.35034         50000.0       657.35034
         1        40         7       440.84967         50000.0       435.84967
         1        40        31       532.78143         50000.0       527.78143
         1        40        52       546.65436         50000.0       541.65436
         1        40        30        558.6196         50000.0        553.6196
         1        40        50        541.5225         50000.0        536.5225
         1        40        51       544.91095         50000.0       539.91095
         1        40        34       480.77228         50000.0       475.77228
         1        40        35       480.85385         50000.0       475.85385
         1        40        33       481.26736         50000.0       476.26736
         1        40        36       485.47842         50000.0       480.47842
         1        40        25       469.71332         50000.0       464.71332
         1        40        26        470.7899         50000.0        465.7899
         1        40        27        473.6769         50000.0        468.6769
         1        40        28       474.63297         50000.0       469.63297
         1        40        29       477.16925         50000.0       472.16925
         1        40        41        510.3196         50000.0        505.3196
         1        40         8         441.683         50000.0         436.683
         1        39         8       441.68314         50000.0       436.68314
         1        39        41       512.44995         50000.0       507.44995
         1        39        36       493.63467         50000.0       488.63467
         1        39        37       493.17715         50000.0       488.17715
         1        39         9        441.6173         50000.0        436.6173
         1        39        38       492.19437         50000.0       487.19437
         1        39        10       441.22382         50000.0       436.22382
         1        39        39       499.86536         50000.0       494.86536
         1        39        12       441.41064         50000.0       436.41064
         1        39        13       441.44354         50000.0       436.44354
         1        38        10         441.638         50000.0         436.638
         1        38        12        441.3778         50000.0        436.3778
         1        38        13       441.47635         50000.0       436.47635
         1        38        39        489.4382         50000.0        484.4382
         1        38        41       505.85474         50000.0       500.85474
         1        38        40       498.07156         50000.0       493.07156
         1        38        14       441.70355         50000.0       436.70355
         1        38        11       441.32227         50000.0       436.32227
         1        37        14       441.64124         50000.0       436.64124
         1        36        14       441.67328         50000.0       436.67328
         1        36        15        442.6248         50000.0        437.6248
         1        35        15       441.87234         50000.0       436.87234
         1        34        15       441.89035         50000.0       436.89035
         1        34        16       442.11618         50000.0       437.11618
         1        34        17       442.69012         50000.0       437.69012
         1        33        17       442.17792         50000.0       437.17792
         1        33        18        442.1349         50000.0        437.1349
         1        32        18        442.1359         50000.0        437.1359
         1        31        18       442.23022         50000.0       437.23022
         1        31        19       442.26044         50000.0       437.26044
         1        30        19       442.61215         50000.0       437.61215
         1        30        20       466.57648         50000.0       461.57648
         1        29        20        465.9481         50000.0        460.9481
         1        28        20       452.57623         50000.0       447.57623
         1        28        19        442.1439         50000.0        437.1439
         1        28        18       442.55344         50000.0       437.55344
         1        28        21        463.3516         50000.0        458.3516
         1        27        21        451.8921         50000.0        446.8921
         1        27        18       445.24368         50000.0       440.24368
         1        27        17       443.78506         50000.0       438.78506
         1        26        21       445.14777         50000.0       440.14777
         1        26        16       448.08173         50000.0       443.08173
         1        26        18         443.194         50000.0         438.194
         1        26        17       447.99527         50000.0       442.99527
         1        26        15       502.19116         50000.0       497.19116
         1        26        14       450.77237         50000.0       445.77237
         1        25        21       445.18036         50000.0       440.18036
         1        25        14        456.9809         50000.0        451.9809
         1        25        16       454.49915         50000.0       449.49915
         1        24        21        445.2461         50000.0        440.2461
         1        24        14        456.9238         50000.0        451.9238
         1        24        22        445.2461         50000.0        440.2461
         1        24        13        457.1617         50000.0        452.1617
         1        24        23       445.65414         50000.0       440.65414
         1        23        23       444.97253         50000.0       439.97253
         1        23        13       460.63165         50000.0       455.63165
         1        23        24        442.9922         50000.0        437.9922
         1        23        12       460.50253         50000.0       455.50253
         1        23        11       598.56537         50000.0       593.56537
         1        22        24       444.73978         50000.0       439.73978
         1        22        11         475.722         50000.0         470.722
         1        22        12       460.24966         50000.0       455.24966
         1        22        13        460.1647         50000.0        455.1647
         1        22        25       443.32446         50000.0       438.32446
         1        22         8       482.57007         50000.0       477.57007
         1        22         9       568.63605         50000.0       563.63605
         1        21        25       443.44858         50000.0       438.44858
         1        21         8       474.35596         50000.0       469.35596
         1        21         9        547.0995         50000.0        542.0995
         1        21        11       460.98804         50000.0       455.98804
         1        21        10       500.17834         50000.0       495.17834
         1        21        26       445.47134         50000.0       440.47134
         1        20        26       445.33163         50000.0       440.33163
         1        20         8        521.0498         50000.0        516.0498
         1        20        27        446.3086         50000.0        441.3086
         1        20        48       534.21783         50000.0       529.21783
         1        20        44        513.6962         50000.0       508.69623
         1        20        49        574.5039         50000.0        569.5039
         1        19        44        524.2141         50000.0        519.2141
         1        19        46       521.78784         50000.0       516.78784
         1        19        47        524.8254         50000.0        519.8254
         1        19        48       529.75854         50000.0       524.75854
         1        19        49        539.6971         50000.0        534.6971
         1        19        27       446.14514         50000.0       441.14514
         1        19        28       446.28085         50000.0       441.28085
         1        19         8       520.65875         50000.0       515.65875
         1        19        39       476.19525         50000.0       471.19525
         1        19        45        512.6798         50000.0        507.6798
         1        19        40       489.06012         50000.0       484.06012
         1        19        41       492.15524         50000.0       487.15524
         1        19        38        473.7244         50000.0        468.7244
         1        19        43       511.07114         50000.0       506.07114
         1        19         7       469.54053         50000.0       464.54053
         1        19        42       485.31296         50000.0       480.31296
         1        19        37       469.96762         50000.0       464.96762
         1        18        37        469.0462         50000.0        464.0462
         1        18        42        499.6968         50000.0        494.6968
         1        18        43       500.70718         50000.0       495.70718
         1        18        49        539.9491         50000.0        534.9491
         1        18        28       443.76706         50000.0       438.76706
         1        18         7        518.4168         50000.0        513.4168
         1        18        50        550.3745         50000.0        545.3745
         1        18         6       489.65564         50000.0       484.65564
         1        18        29          432.88         50000.0          427.88
         1        17        37        461.0082         50000.0        456.0082
         1        17        50        551.6513         50000.0        546.6513
         1        17        29        433.2195         50000.0        428.2195
         1        17         6        539.3804         50000.0        534.3804
         1        17        51        547.9249         50000.0        542.9249
         1        17         7        599.9607         50000.0        594.9607
         1        17         8       590.18604         50000.0       585.18604
         1        17        36       462.86682         50000.0       457.86682
         1        16        36       453.98264         50000.0       448.98264
         1        16        50       549.40485         50000.0       544.40485
         1        16        51        552.7592         50000.0        547.7592
         1        16        29       434.46152         50000.0       429.46152
         1        16         7        555.3145         50000.0        550.3145
         1        16         8        556.8041         50000.0        551.8041
         1        15        36       452.87198         50000.0       447.87198
         1        15        50        561.0714         50000.0        556.0714
         1        15        29       433.60675         50000.0       428.60675
         1        15         8       489.84744         50000.0       484.84744
         1        15        51         564.275         50000.0         559.275
         1        15        52       569.84686         50000.0       564.84686
         1        15        30       431.73065         50000.0       426.73065
         1        14        36       449.75275         50000.0       444.75275
         1        14        37       449.55475         50000.0       444.55475
         1        14        52        582.2475         50000.0        577.2475
         1        14        30        436.1652         50000.0        431.1652
         1        14         8       574.01056         50000.0       569.01056
         1        14        31        439.7452         50000.0        434.7452
         1        14        53        574.6168         50000.0        569.6168
         1        14         9       490.40356         50000.0       485.40356
         1        13        36       446.03995         50000.0       441.03995
         1        13        53        571.2846         50000.0        566.2846
         1        13        31       437.14093         50000.0       432.14093
         1        13         9        480.1597         50000.0        475.1597
         1        13        32       434.21988         50000.0       429.21988
         1        13        33       438.91895         50000.0       433.91895
         1        12        36        448.5553         50000.0        443.5553
         1        12        53        583.2936         50000.0        578.2936
         1        12        54        592.7448         50000.0        587.7448
         1        12        33       444.54172         50000.0       439.54172
         1        12         9        487.1138         50000.0        482.1138
         1        12        34       438.51575         50000.0       433.51575
         1        12        35       434.05148         50000.0       429.05148
         1        12        38        444.2159         50000.0        439.2159
         1        12        39       444.24545         50000.0       439.24545
         1        12        37        445.6059         50000.0        440.6059
         1        12        55       611.12683         50000.0       606.12683
         1        11        55       592.82605         50000.0       587.82605
         1        11         9        541.1963         50000.0        536.1963
         1        11        37       443.98282         50000.0       438.98282
         1        11        38       443.94485         50000.0       438.94485
         1        11        39       459.85318         50000.0       454.85318
         1        11        56       650.88947         50000.0       645.88947
         1        11        10       615.75757         50000.0       610.75757
         1        11        40       446.65173         50000.0       441.65173
         1        11        57        738.6702         50000.0        733.6702
         1        10        57        609.9014         50000.0        604.9014
         1        10         9       499.10303         50000.0       494.10303
         1        10        10       506.04993         50000.0       501.04993
         1        10        40       444.38205         50000.0       439.38205
         1        10        58        607.0708         50000.0        602.0708
         1        10         8        500.6743         50000.0        495.6743
         1         9        58        649.3473         50000.0        644.3473
         1         9         8        541.5475         50000.0        536.5475
         1         9        40       444.50772         50000.0       439.50772
         1         9         7       501.38278         50000.0       496.38278
         1         8        58       619.64343         50000.0       614.64343
         1         8        59       636.45874         50000.0       631.45874
         1         8         7         509.339         50000.0         504.339
         1         8        40         444.753         50000.0         439.753
         1         8         8       595.78546         50000.0       590.78546
         1         8        41        446.2082         50000.0        441.2082
         1         7        59        619.3539         50000.0        614.3539
         1         7         8        509.7442         50000.0        504.7442
         1         7        41        444.7576         50000.0        439.7576
         1         7         9       509.44904         50000.0       504.44904
         1         7        60        654.3164         50000.0        649.3164
         1         7        10       524.93427         50000.0       519.93427
         1         6        60        641.8163         50000.0        636.8163
         1         6         9        508.1497         50000.0        503.1497
         1         6        10        551.2573         50000.0        546.2573
         1         6        41        449.6546         50000.0        444.6546
         1         6        42       474.39294         50000.0       469.39294
         1         6        63       694.25653         50000.0       689.25653
         1         6        64       731.97406         50000.0       726.97406
         1         6        61        674.2036         50000.0        669.2036
         1         5        61        636.8184         50000.0        631.8184
         1         5        63        624.1424         50000.0        619.1424
         1         5        64        649.2475         50000.0        644.2475
         1         5        10       510.18652         50000.0       505.18652
         1         5        42        471.8154         50000.0        466.8154
         1         5        69        731.6979         50000.0        726.6979
         1         5        70        730.5316         50000.0        725.5316
         1         5        62        634.4493         50000.0        629.4493
         1         5        65       662.22186         50000.0       657.22186
         1         5        68        718.5422         50000.0        713.5422
         1         5        71        707.3931         50000.0        702.3931
         1         5        66        700.4787         50000.0        695.4787
         1         5        67        699.3291         50000.0        694.3291
         1         4        67        649.6157         50000.0        644.6157
         1         4        68        655.0658         50000.0        650.0658
         1         4        70        662.4717         50000.0        657.4717
         1         4        71         660.816         50000.0         655.816
         1         4        72        685.2373         50000.0        680.2373
         1         4        75        709.6049         50000.0        704.6049
         1         4        10       509.76318         50000.0       504.76318
         1         4        42         444.777         50000.0         439.777
         1         4        73        681.0117         50000.0        676.0117
         1         4        74        710.6161         50000.0        705.6161
         1         4        43       453.36597         50000.0       448.36597
         1         3        74       673.76776         50000.0       668.76776
         1         3        10        520.8797         50000.0        515.8797
         1         3        43       444.87546         50000.0       439.87546
         1         3        44        444.9074         50000.0        439.9074
         1         2        10        519.7703         50000.0        514.7703
         1         2        44        444.9411         50000.0        439.9411
         1         2        45       444.94104         50000.0       439.94104
         1         1        10        527.7722         50000.0        522.7722
         1         1        45        445.0065         50000.0        440.0065
         1         1        11        533.3423         50000.0        528.3423
