# LPF package for  MODFLOW-2005, generated by Flopy.
         1    -1E+30         0  
         0
         0
   1.000000E+00
         0
         0
INTERNAL               1 (150E15.6) -1 #hk layer 1                    
   1.000000E+01   1.000000E+01   1.000000E+01   1.000000E+01   1.000000E+01   1.000000E+01   1.000000E+01   1.000000E+01   1.000000E+01   1.000000E+01   1.000000E+01   1.000000E+01   1.000000E+01   1.000000E+01   1.000000E+01   1.000000E+01   1.000000E+01   1.000000E+01   1.000000E+01   1.000000E+01   1.000000E+01   1.500000E+02   1.000000E+01   1.000000E+01   1.000000E+01   1.000000E+01   1.000000E+01   1.000000E+01   1.000000E+01   1.000000E+01   1.000000E+01   1.000000E+01   1.000000E+01   1.000000E+01   1.000000E+01   1.000000E+01   1.000000E+01   1.000000E+01   1.000000E+01   1.000000E+01   1.000000E+01   1.000000E+01   1.000000E+01   1.000000E+01   1.000000E+01   1.000000E+01   1.000000E+01   1.000000E+01   1.000000E+01   1.000000E+01   1.000000E+01   1.000000E+01   1.000000E+01   1.000000E+01   1.000000E+01   1.000000E+01   1.000000E+01   1.000000E+01   1.000000E+01   1.000000E+01   1.000000E+01   1.000000E+01   1.000000E+01   1.000000E+01   1.000000E+01   1.000000E+01   1.000000E+01   1.000000E+01   1.000000E+01   1.000000E+01   1.000000E+01   1.000000E+01   1.000000E+01   1.000000E+01   1.000000E+01   1.000000E+01   1.000000E+01   1.000000E+01   1.000000E+01   1.500000E+02   1.500000E+02   1.500000E+02   1.500000E+02   1.500000E+02   1.500000E+02   1.500000E+02   1.500000E+02   1.500000E+02   1.500000E+02   1.500000E+02   1.500000E+02   1.500000E+02   1.500000E+02   1.500000E+02   1.500000E+02   1.500000E+02   1.500000E+02   1.500000E+02   1.500000E+02   1.500000E+02   1.500000E+02   1.500000E+02   1.500000E+02   1.500000E+02   1.500000E+02   1.500000E+02   1.500000E+02   1.500000E+02   1.500000E+02   1.500000E+02   1.000000E+01   1.000000E+01   1.000000E+01   1.000000E+01   1.000000E+01   1.000000E+01   1.000000E+01   1.000000E+01   1.000000E+01   1.000000E+01   1.000000E+01   1.000000E+01   1.000000E+01   1.000000E+01   1.000000E+01   1.000000E+01   1.000000E+01   1.000000E+01   1.000000E+01   1.000000E+01   1.000000E+01   1.000000E+01   1.000000E+01   1.000000E+01   1.000000E+01   1.000000E+01   1.000000E+01   1.000000E+01   1.000000E+01   1.000000E+01   1.000000E+01   1.000000E+01   1.000000E+01   1.000000E+01   1.000000E+01   1.000000E+01   1.000000E+01   1.000000E+01   1.000000E+01   1.000000E+01
   1.000000E+01   1.000000E+01   1.000000E+01   1.000000E+01   1.000000E+01   1.000000E+01   1.000000E+01   1.000000E+01   1.000000E+01   1.000000E+01   1.000000E+01   1.000000E+01   1.000000E+01   1.000000E+01   1.000000E+01   1.000000E+01   1.000000E+01   1.000000E+01   1.000000E+01   1.500000E+02   1.500000E+02   1.500000E+02   1.000000E+01   1.000000E+01   1.000000E+01   1.000000E+01   1.000000E+01   1.000000E+01   1.000000E+01   1.000000E+01   1.000000E+01   1.000000E+01   1.000000E+01   1.000000E+01   1.000000E+01   1.000000E+01   1.000000E+01   1.000000E+01   1.000000E+01   1.000000E+01   1.000000E+01   1.000000E+01   1.000000E+01   1.000000E+01   1.000000E+01   1.000000E+01   1.000000E+01   1.000000E+01   1.000000E+01   1.000000E+01   1.000000E+01   1.000000E+01   1.000000E+01   1.000000E+01   1.000000E+01   1.000000E+01   1.000000E+01   1.000000E+01   1.000000E+01   1.000000E+01   1.000000E+01   1.000000E+01   1.000000E+01   1.000000E+01   1.000000E+01   1.000000E+01   1.000000E+01   1.000000E+01   1.000000E+01   1.000000E+01   1.000000E+01   1.000000E+01   1.000000E+01   1.000000E+01   1.000000E+01   1.000000E+01   1.000000E+01   1.000000E+01   1.500000E+02   1.500000E+02   1.500000E+02   1.500000E+02   1.500000E+02   1.500000E+02   1.500000E+02   1.500000E+02   1.500000E+02   1.500000E+02   1.500000E+02   1.500000E+02   1.500000E+02   1.500000E+02   1.500000E+02   1.500000E+02   1.500000E+02   1.500000E+02   1.500000E+02   1.500000E+02   1.500000E+02   1.500000E+02   1.500000E+02   1.500000E+02   1.500000E+02   1.500000E+02   1.500000E+02   1.500000E+02   1.500000E+02   1.500000E+02   1.500000E+02   1.500000E+02   1.000000E+01   1.000000E+01   1.000000E+01   1.000000E+01   1.000000E+01   1.000000E+01   1.000000E+01   1.000000E+01   1.000000E+01   1.000000E+01   1.000000E+01   1.000000E+01   1.000000E+01   1.000000E+01   1.000000E+01   1.000000E+01   1.000000E+01   1.000000E+01   1.000000E+01   1.000000E+01   1.000000E+01   1.000000E+01   1.000000E+01   1.000000E+01   1.000000E+01   1.000000E+01   1.000000E+01   1.000000E+01   1.000000E+01   1.000000E+01   1.000000E+01   1.000000E+01   1.000000E+01   1.000000E+01   1.000000E+01   1.000000E+01   1.000000E+01   1.000000E+01   1.000000E+01   1.000000E+01
   1.000000E+01   1.000000E+01   1.000000E+01   1.000000E+01   1.000000E+01   1.000000E+01   1.000000E+01   1.000000E+01   1.000000E+01   1.000000E+01   1.000000E+01   1.000000E+01   1.000000E+01   1.000000E+01   1.000000E+01   1.000000E+01   1.000000E+01   1.000000E+01   1.000000E+01   1.500000E+02   1.000000E+01   1.000000E+01   1.000000E+01   1.000000E+01   1.000000E+01   1.000000E+01   1.000000E+01   1.000000E+01   1.000000E+01   1.000000E+01   1.000000E+01   1.000000E+01   1.000000E+01   1.000000E+01   1.000000E+01   1.000000E+01   1.000000E+01   1.000000E+01   1.000000E+01   1.000000E+01   1.000000E+01   1.000000E+01   1.000000E+01   1.000000E+01   1.000000E+01   1.000000E+01   1.000000E+01   1.000000E+01   1.000000E+01   1.000000E+01   1.000000E+01   1.000000E+01   1.000000E+01   1.000000E+01   1.000000E+01   1.000000E+01   1.000000E+01   1.000000E+01   1.000000E+01   1.000000E+01   1.000000E+01   1.000000E+01   1.000000E+01   1.000000E+01   1.000000E+01   1.000000E+01   1.000000E+01   1.000000E+01   1.000000E+01   1.000000E+01   1.000000E+01   1.000000E+01   1.000000E+01   1.000000E+01   1.000000E+01   1.000000E+01   1.000000E+01   1.500000E+02   1.500000E+02   1.500000E+02   1.500000E+02   1.500000E+02   1.500000E+02   1.500000E+02   1.500000E+02   1.500000E+02   1.500000E+02   1.500000E+02   1.500000E+02   1.500000E+02   1.500000E+02   1.500000E+02   1.500000E+02   1.500000E+02   1.500000E+02   1.500000E+02   1.500000E+02   1.500000E+02   1.500000E+02   1.500000E+02   1.500000E+02   1.500000E+02   1.500000E+02   1.500000E+02   1.500000E+02   1.500000E+02   1.500000E+02   1.500000E+02   1.500000E+02   1.500000E+02   1.500000E+02   1.000000E+01   1.000000E+01   1.000000E+01   1.000000E+01   1.000000E+01   1.000000E+01   1.000000E+01   1.000000E+01   1.000000E+01   1.000000E+01   1.000000E+01   1.000000E+01   1.000000E+01   1.000000E+01   1.000000E+01   1.000000E+01   1.000000E+01   1.000000E+01   1.000000E+01   1.000000E+01   1.000000E+01   1.000000E+01   1.000000E+01   1.000000E+01   1.000000E+01   1.000000E+01   1.000000E+01   1.000000E+01   1.000000E+01   1.000000E+01   1.000000E+01   1.000000E+01   1.000000E+01   1.000000E+01   1.000000E+01   1.000000E+01   1.000000E+01   1.000000E+01   1.000000E+01
   1.000000E+01   1.000000E+01   1.000000E+01   1.000000E+01   1.000000E+01   1.000000E+01   1.000000E+01   1.000000E+01   1.000000E+01   1.000000E+01   1.000000E+01   1.000000E+01   1.000000E+01   1.000000E+01   1.000000E+01   1.000000E+01   1.000000E+01   1.000000E+01   1.000000E+01   1.500000E+02   1.000000E+01   1.000000E+01   1.000000E+01   1.000000E+01   1.000000E+01   1.000000E+01   1.000000E+01   1.000000E+01   1.000000E+01   1.000000E+01   1.000000E+01   1.000000E+01   1.000000E+01   1.000000E+01   1.000000E+01   1.000000E+01   1.000000E+01   1.000000E+01   1.000000E+01   1.000000E+01   1.000000E+01   1.000000E+01   1.000000E+01   1.000000E+01   1.000000E+01   1.000000E+01   1.000000E+01   1.000000E+01   1.000000E+01   1.000000E+01   1.000000E+01   1.000000E+01   1.000000E+01   1.000000E+01   1.000000E+01   1.000000E+01   1.000000E+01   1.000000E+01   1.000000E+01   1.000000E+01   1.000000E+01   1.000000E+01   1.000000E+01   1.000000E+01   1.000000E+01   1.000000E+01   1.000000E+01   1.000000E+01   1.000000E+01   1.000000E+01   1.000000E+01   1.000000E+01   1.000000E+01   1.000000E+01   1.000000E+01   1.000000E+01   1.500000E+02   1.500000E+02   1.500000E+02   1.500000E+02   1.500000E+02   1.500000E+02   1.500000E+02   1.500000E+02   1.500000E+02   1.500000E+02   1.500000E+02   1.500000E+02   1.500000E+02   1.500000E+02   1.500000E+02   1.500000E+02   1.500000E+02   1.500000E+02   1.500000E+02   1.500000E+02   1.500000E+02   1.500000E+02   1.500000E+02   1.500000E+02   1.500000E+02   1.500000E+02   1.500000E+02   1.500000E+02   1.500000E+02   1.500000E+02   1.500000E+02   1.500000E+02   1.500000E+02   1.500000E+02   1.500000E+02   1.500000E+02   1.000000E+01   1.000000E+01   1.000000E+01   1.000000E+01   1.000000E+01   1.000000E+01   1.000000E+01   1.000000E+01   1.000000E+01   1.000000E+01   1.000000E+01   1.000000E+01   1.000000E+01   1.000000E+01   1.000000E+01   1.000000E+01   1.000000E+01   1.000000E+01   1.000000E+01   1.000000E+01   1.000000E+01   1.000000E+01   1.000000E+01   1.000000E+01   1.000000E+01   1.000000E+01   1.000000E+01   1.000000E+01   1.000000E+01   1.000000E+01   1.000000E+01   1.000000E+01   1.000000E+01   1.000000E+01   1.000000E+01   1.000000E+01   1.000000E+01   1.000000E+01
   1.000000E+01   1.000000E+01   1.000000E+01   1.000000E+01   1.000000E+01   1.000000E+01   1.000000E+01   1.000000E+01   1.000000E+01   1.000000E+01   1.000000E+01   1.000000E+01   1.000000E+01   1.000000E+01   1.000000E+01   1.000000E+01   1.000000E+01   1.000000E+01   1.500000E+02   1.500000E+02   1.000000E+01   1.500000E+02   1.000000E+01   1.000000E+01   1.000000E+01   1.000000E+01   1.000000E+01   1.000000E+01   1.000000E+01   1.000000E+01   1.000000E+01   1.000000E+01   1.000000E+01   1.000000E+01   1.000000E+01   1.000000E+01   1.000000E+01   1.000000E+01   1.000000E+01   1.000000E+01   1.000000E+01   1.000000E+01   1.000000E+01   1.000000E+01   1.000000E+01   1.000000E+01   1.000000E+01   1.000000E+01   1.000000E+01   1.000000E+01   1.000000E+01   1.000000E+01   1.000000E+01   1.000000E+01   1.000000E+01   1.000000E+01   1.000000E+01   1.000000E+01   1.000000E+01   1.000000E+01   1.000000E+01   1.000000E+01   1.000000E+01   1.000000E+01   1.000000E+01   1.000000E+01   1.000000E+01   1.000000E+01   1.000000E+01   1.000000E+01   1.000000E+01   1.000000E+01   1.000000E+01   1.000000E+01   1.000000E+01   1.000000E+01   1.500000E+02   1.500000E+02   1.500000E+02   1.500000E+02   1.500000E+02   1.500000E+02   1.500000E+02   1.500000E+02   1.500000E+02   1.500000E+02   1.500000E+02   1.500000E+02   1.500000E+02   1.500000E+02   1.500000E+02   1.500000E+02   1.500000E+02   1.500000E+02   1.500000E+02   1.500000E+02   1.500000E+02   1.500000E+02   1.500000E+02   1.500000E+02   1.500000E+02   1.500000E+02   1.500000E+02   1.500000E+02   1.500000E+02   1.500000E+02   1.500000E+02   1.500000E+02   1.500000E+02   1.500000E+02   1.500000E+02   1.500000E+02   1.000000E+01   1.000000E+01   1.000000E+01   1.000000E+01   1.000000E+01   1.000000E+01   1.000000E+01   1.000000E+01   1.000000E+01   1.000000E+01   1.000000E+01   1.000000E+01   1.000000E+01   1.000000E+01   1.000000E+01   1.000000E+01   1.000000E+01   1.000000E+01   1.000000E+01   1.000000E+01   1.000000E+01   1.000000E+01   1.000000E+01   1.000000E+01   1.000000E+01   1.000000E+01   1.000000E+01   1.000000E+01   1.000000E+01   1.000000E+01   1.000000E+01   1.000000E+01   1.000000E+01   1.000000E+01   1.000000E+01   1.000000E+01   1.000000E+01   1.000000E+01
   1.000000E+01   1.000000E+01   1.000000E+01   1.000000E+01   1.000000E+01   1.000000E+01   1.000000E+01   1.000000E+01   1.000000E+01   1.000000E+01   1.000000E+01   1.000000E+01   1.000000E+01   1.000000E+01   1.000000E+01   1.000000E+01   1.000000E+01   1.000000E+01   1.500000E+02   1.500000E+02   1.500000E+02   1.500000E+02   1.500000E+02   1.500000E+02   1.000000E+01   1.000000E+01   1.000000E+01   1.000000E+01   1.000000E+01   1.000000E+01   1.000000E+01   1.000000E+01   1.000000E+01   1.000000E+01   1.000000E+01   1.000000E+01   1.000000E+01   1.000000E+01   1.000000E+01   1.000000E+01   1.000000E+01   1.000000E+01   1.000000E+01   1.000000E+01   1.000000E+01   1.000000E+01   1.000000E+01   1.000000E+01   1.000000E+01   1.000000E+01   1.000000E+01   1.000000E+01   1.000000E+01   1.000000E+01   1.000000E+01   1.000000E+01   1.000000E+01   1.000000E+01   1.000000E+01   1.000000E+01   1.000000E+01   1.000000E+01   1.000000E+01   1.000000E+01   1.000000E+01   1.000000E+01   1.000000E+01   1.000000E+01   1.000000E+01   1.000000E+01   1.000000E+01   1.000000E+01   1.000000E+01   1.000000E+01   1.000000E+01   1.000000E+01   1.500000E+02   1.500000E+02   1.500000E+02   1.500000E+02   1.500000E+02   1.500000E+02   1.500000E+02   1.500000E+02   1.500000E+02   1.500000E+02   1.500000E+02   1.500000E+02   1.500000E+02   1.500000E+02   1.500000E+02   1.500000E+02   1.500000E+02   1.500000E+02   1.500000E+02   1.500000E+02   1.500000E+02   1.500000E+02   1.500000E+02   1.500000E+02   1.500000E+02   1.500000E+02   1.500000E+02   1.500000E+02   1.500000E+02   1.500000E+02   1.500000E+02   1.500000E+02   1.500000E+02   1.500000E+02   1.500000E+02   1.500000E+02   1.500000E+02   1.000000E+01   1.000000E+01   1.000000E+01   1.000000E+01   1.000000E+01   1.000000E+01   1.000000E+01   1.000000E+01   1.000000E+01   1.000000E+01   1.000000E+01   1.000000E+01   1.000000E+01   1.000000E+01   1.000000E+01   1.000000E+01   1.000000E+01   1.000000E+01   1.000000E+01   1.000000E+01   1.000000E+01   1.000000E+01   1.000000E+01   1.000000E+01   1.000000E+01   1.000000E+01   1.000000E+01   1.000000E+01   1.000000E+01   1.000000E+01   1.000000E+01   1.000000E+01   1.000000E+01   1.500000E+02   1.000000E+01   1.000000E+01   1.000000E+01
   1.000000E+01   1.000000E+01   1.000000E+01   1.000000E+01   1.000000E+01   1.000000E+01   1.000000E+01   1.000000E+01   1.000000E+01   1.000000E+01   1.000000E+01   1.000000E+01   1.000000E+01   1.000000E+01   1.000000E+01   1.500000E+02   1.500000E+02   1.500000E+02   1.500000E+02   1.500000E+02   1.500000E+02   1.500000E+02   1.500000E+02   1.500000E+02   1.500000E+02   1.500000E+02   1.500000E+02   1.500000E+02   1.500000E+02   1.000000E+01   1.000000E+01   1.000000E+01   1.000000E+01   1.000000E+01   1.000000E+01   1.000000E+01   1.000000E+01   1.000000E+01   1.000000E+01   1.000000E+01   1.000000E+01   1.000000E+01   1.000000E+01   1.000000E+01   1.000000E+01   1.000000E+01   1.000000E+01   1.000000E+01   1.000000E+01   1.000000E+01   1.000000E+01   1.000000E+01   1.000000E+01   1.000000E+01   1.000000E+01   1.000000E+01   1.000000E+01   1.000000E+01   1.000000E+01   1.000000E+01   1.000000E+01   1.000000E+01   1.000000E+01   1.000000E+01   1.000000E+01   1.000000E+01   1.000000E+01   1.000000E+01   1.000000E+01   1.000000E+01   1.000000E+01   1.000000E+01   1.000000E+01   1.000000E+01   1.000000E+01   1.000000E+01   1.500000E+02   1.500000E+02   1.500000E+02   1.500000E+02   1.500000E+02   1.500000E+02   1.500000E+02   1.500000E+02   1.500000E+02   1.500000E+02   1.500000E+02   1.500000E+02   1.500000E+02   1.500000E+02   1.500000E+02   1.500000E+02   1.500000E+02   1.500000E+02   1.500000E+02   1.500000E+02   1.500000E+02   1.500000E+02   1.500000E+02   1.500000E+02   1.500000E+02   1.500000E+02   1.500000E+02   1.500000E+02   1.500000E+02   1.500000E+02   1.500000E+02   1.500000E+02   1.500000E+02   1.500000E+02   1.500000E+02   1.500000E+02   1.500000E+02   1.000000E+01   1.000000E+01   1.000000E+01   1.000000E+01   1.000000E+01   1.000000E+01   1.000000E+01   1.000000E+01   1.000000E+01   1.000000E+01   1.000000E+01   1.000000E+01   1.500000E+02   1.500000E+02   1.500000E+02   1.500000E+02   1.000000E+01   1.000000E+01   1.000000E+01   1.000000E+01   1.000000E+01   1.000000E+01   1.000000E+01   1.500000E+02   1.500000E+02   1.000000E+01   1.000000E+01   1.000000E+01   1.000000E+01   1.000000E+01   1.500000E+02   1.500000E+02   1.500000E+02   1.500000E+02   1.500000E+02   1.500000E+02   1.500000E+02
   1.000000E+01   1.000000E+01   1.000000E+01   1.000000E+01   1.000000E+01   1.000000E+01   1.000000E+01   1.000000E+01   1.000000E+01   1.000000E+01   1.000000E+01   1.000000E+01   1.000000E+01   1.000000E+01   1.000000E+01   1.500000E+02   1.500000E+02   1.500000E+02   1.500000E+02   1.500000E+02   1.500000E+02   1.500000E+02   1.500000E+02   1.500000E+02   1.500000E+02   1.500000E+02   1.500000E+02   1.500000E+02   1.500000E+02   1.000000E+01   1.000000E+01   1.000000E+01   1.000000E+01   1.000000E+01   1.000000E+01   1.000000E+01   1.000000E+01   1.000000E+01   1.000000E+01   1.000000E+01   1.000000E+01   1.000000E+01   1.000000E+01   1.000000E+01   1.000000E+01   1.000000E+01   1.000000E+01   1.000000E+01   1.000000E+01   1.000000E+01   1.000000E+01   1.000000E+01   1.000000E+01   1.000000E+01   1.000000E+01   1.000000E+01   1.000000E+01   1.000000E+01   1.000000E+01   1.000000E+01   1.000000E+01   1.000000E+01   1.000000E+01   1.000000E+01   1.000000E+01   1.000000E+01   1.000000E+01   1.000000E+01   1.000000E+01   1.000000E+01   1.000000E+01   1.000000E+01   1.000000E+01   1.000000E+01   1.000000E+01   1.000000E+01   1.000000E+01   1.500000E+02   1.500000E+02   1.500000E+02   1.500000E+02   1.500000E+02   1.500000E+02   1.500000E+02   1.500000E+02   1.500000E+02   1.500000E+02   1.500000E+02   1.500000E+02   1.500000E+02   1.500000E+02   1.500000E+02   1.500000E+02   1.500000E+02   1.500000E+02   1.500000E+02   1.500000E+02   1.500000E+02   1.500000E+02   1.500000E+02   1.500000E+02   1.500000E+02   1.500000E+02   1.500000E+02   1.500000E+02   1.500000E+02   1.500000E+02   1.500000E+02   1.500000E+02   1.500000E+02   1.500000E+02   1.500000E+02   1.500000E+02   1.500000E+02   1.000000E+01   1.000000E+01   1.000000E+01   1.000000E+01   1.000000E+01   1.000000E+01   1.000000E+01   1.000000E+01   1.000000E+01   1.500000E+02   1.500000E+02   1.500000E+02   1.500000E+02   1.500000E+02   1.500000E+02   1.000000E+01   1.000000E+01   1.000000E+01   1.000000E+01   1.500000E+02   1.500000E+02   1.500000E+02   1.500000E+02   1.500000E+02   1.000000E+01   1.500000E+02   1.500000E+02   1.500000E+02   1.500000E+02   1.500000E+02   1.500000E+02   1.500000E+02   1.000000E+01   1.000000E+01   1.000000E+01   1.500000E+02
   1.000000E+01   1.000000E+01   1.000000E+01   1.000000E+01   1.000000E+01   1.000000E+01   1.000000E+01   1.000000E+01   1.000000E+01   1.000000E+01   1.000000E+01   1.000000E+01   1.000000E+01   1.000000E+01   1.500000E+02   1.500000E+02   1.500000E+02   1.500000E+02   1.500000E+02   1.500000E+02   1.500000E+02   1.500000E+02   1.500000E+02   1.500000E+02   1.500000E+02   1.500000E+02   1.000000E+01   1.000000E+01   1.000000E+01   1.000000E+01   1.000000E+01   1.000000E+01   1.000000E+01   1.000000E+01   1.000000E+01   1.000000E+01   1.000000E+01   1.000000E+01   1.000000E+01   1.000000E+01   1.000000E+01   1.000000E+01   1.000000E+01   1.000000E+01   1.000000E+01   1.000000E+01   1.000000E+01   1.000000E+01   1.000000E+01   1.000000E+01   1.000000E+01   1.000000E+01   1.000000E+01   1.000000E+01   1.000000E+01   1.000000E+01   1.000000E+01   1.000000E+01   1.000000E+01   1.000000E+01   1.000000E+01   1.000000E+01   1.000000E+01   1.000000E+01   1.000000E+01   1.000000E+01   1.000000E+01   1.000000E+01   1.000000E+01   1.000000E+01   1.000000E+01   1.000000E+01   1.000000E+01   1.000000E+01   1.000000E+01   1.000000E+01   1.000000E+01   1.000000E+01   1.500000E+02   1.500000E+02   1.500000E+02   1.500000E+02   1.500000E+02   1.500000E+02   1.500000E+02   1.500000E+02   1.500000E+02   1.500000E+02   1.500000E+02   1.500000E+02   1.500000E+02   1.500000E+02   1.500000E+02   1.500000E+02   1.500000E+02   1.500000E+02   1.500000E+02   1.500000E+02   1.500000E+02   1.500000E+02   1.500000E+02   1.500000E+02   1.500000E+02   1.500000E+02   1.500000E+02   1.500000E+02   1.500000E+02   1.500000E+02   1.500000E+02   1.500000E+02   1.500000E+02   1.500000E+02   1.500000E+02   1.500000E+02   1.000000E+01   1.000000E+01   1.000000E+01   1.000000E+01   1.000000E+01   1.000000E+01   1.500000E+02   1.500000E+02   1.500000E+02   1.500000E+02   1.500000E+02   1.500000E+02   1.500000E+02   1.500000E+02   1.500000E+02   1.500000E+02   1.500000E+02   1.500000E+02   1.500000E+02   1.500000E+02   1.000000E+01   1.500000E+02   1.500000E+02   1.500000E+02   1.500000E+02   1.500000E+02   1.500000E+02   1.500000E+02   1.500000E+02   1.500000E+02   1.500000E+02   1.500000E+02   1.500000E+02   1.500000E+02   1.000000E+01   1.000000E+01
   1.000000E+01   1.000000E+01   1.000000E+01   1.000000E+01   1.000000E+01   1.000000E+01   1.000000E+01   1.000000E+01   1.000000E+01   1.000000E+01   1.000000E+01   1.000000E+01   1.000000E+01   1.000000E+01   1.500000E+02   1.500000E+02   1.500000E+02   1.500000E+02   1.500000E+02   1.500000E+02   1.500000E+02   1.500000E+02   1.500000E+02   1.500000E+02   1.500000E+02   1.500000E+02   1.000000E+01   1.000000E+01   1.000000E+01   1.000000E+01   1.000000E+01   1.000000E+01   1.000000E+01   1.000000E+01   1.000000E+01   1.000000E+01   1.000000E+01   1.000000E+01   1.000000E+01   1.000000E+01   1.000000E+01   1.000000E+01   1.000000E+01   1.000000E+01   1.000000E+01   1.000000E+01   1.000000E+01   1.000000E+01   1.000000E+01   1.000000E+01   1.000000E+01   1.000000E+01   1.000000E+01   1.000000E+01   1.000000E+01   1.000000E+01   1.000000E+01   1.000000E+01   1.000000E+01   1.000000E+01   1.000000E+01   1.000000E+01   1.000000E+01   1.000000E+01   1.000000E+01   1.000000E+01   1.000000E+01   1.000000E+01   1.000000E+01   1.000000E+01   1.000000E+01   1.000000E+01   1.000000E+01   1.000000E+01   1.000000E+01   1.000000E+01   1.000000E+01   1.000000E+01   1.500000E+02   1.500000E+02   1.500000E+02   1.500000E+02   1.500000E+02   1.500000E+02   1.500000E+02   1.500000E+02   1.500000E+02   1.500000E+02   1.500000E+02   1.500000E+02   1.500000E+02   1.500000E+02   1.500000E+02   1.500000E+02   1.500000E+02   1.500000E+02   1.500000E+02   1.500000E+02   1.500000E+02   1.500000E+02   1.500000E+02   1.500000E+02   1.500000E+02   1.500000E+02   1.500000E+02   1.500000E+02   1.500000E+02   1.500000E+02   1.500000E+02   1.500000E+02   1.500000E+02   1.500000E+02   1.500000E+02   1.500000E+02   1.500000E+02   1.000000E+01   1.000000E+01   1.000000E+01   1.000000E+01   1.000000E+01   1.500000E+02   1.000000E+01   1.000000E+01   1.500000E+02   1.500000E+02   1.500000E+02   1.500000E+02   1.500000E+02   1.000000E+01   1.000000E+01   1.000000E+01   1.000000E+01   1.000000E+01   1.000000E+01   1.000000E+01   1.500000E+02   1.500000E+02   1.500000E+02   1.500000E+02   1.000000E+01   1.000000E+01   1.500000E+02   1.500000E+02   1.500000E+02   1.500000E+02   1.500000E+02   1.500000E+02   1.500000E+02   1.500000E+02   1.500000E+02
   1.000000E+01   1.000000E+01   1.000000E+01   1.000000E+01   1.000000E+01   1.000000E+01   1.000000E+01   1.000000E+01   1.000000E+01   1.000000E+01   1.000000E+01   1.000000E+01   1.000000E+01   1.500000E+02   1.500000E+02   1.500000E+02   1.500000E+02   1.500000E+02   1.500000E+02   1.500000E+02   1.500000E+02   1.500000E+02   1.500000E+02   1.500000E+02   1.500000E+02   1.500000E+02   1.000000E+01   1.000000E+01   1.000000E+01   1.000000E+01   1.000000E+01   1.000000E+01   1.000000E+01   1.000000E+01   1.000000E+01   1.000000E+01   1.000000E+01   1.000000E+01   1.000000E+01   1.000000E+01   1.000000E+01   1.000000E+01   1.000000E+01   1.000000E+01   1.000000E+01   1.000000E+01   1.000000E+01   1.000000E+01   1.000000E+01   1.000000E+01   1.000000E+01   1.000000E+01   1.000000E+01   1.000000E+01   1.000000E+01   1.000000E+01   1.000000E+01   1.000000E+01   1.000000E+01   1.000000E+01   1.000000E+01   1.000000E+01   1.000000E+01   1.000000E+01   1.000000E+01   1.000000E+01   1.000000E+01   1.000000E+01   1.000000E+01   1.000000E+01   1.000000E+01   1.000000E+01   1.000000E+01   1.000000E+01   1.000000E+01   1.000000E+01   1.000000E+01   1.000000E+01   1.000000E+01   1.500000E+02   1.500000E+02   1.500000E+02   1.500000E+02   1.500000E+02   1.500000E+02   1.500000E+02   1.500000E+02   1.500000E+02   1.500000E+02   1.500000E+02   1.500000E+02   1.500000E+02   1.500000E+02   1.500000E+02   1.500000E+02   1.500000E+02   1.500000E+02   1.500000E+02   1.500000E+02   1.500000E+02   1.500000E+02   1.500000E+02   1.500000E+02   1.500000E+02   1.500000E+02   1.500000E+02   1.500000E+02   1.500000E+02   1.500000E+02   1.500000E+02   1.500000E+02   1.500000E+02   1.500000E+02   1.500000E+02   1.500000E+02   1.000000E+01   1.000000E+01   1.000000E+01   1.000000E+01   1.500000E+02   1.500000E+02   1.000000E+01   1.000000E+01   1.000000E+01   1.500000E+02   1.500000E+02   1.500000E+02   1.000000E+01   1.000000E+01   1.000000E+01   1.000000E+01   1.000000E+01   1.000000E+01   1.000000E+01   1.000000E+01   1.500000E+02   1.500000E+02   1.500000E+02   1.500000E+02   1.500000E+02   1.000000E+01   1.500000E+02   1.500000E+02   1.500000E+02   1.500000E+02   1.500000E+02   1.500000E+02   1.500000E+02   1.500000E+02   1.500000E+02
   1.000000E+01   1.000000E+01   1.000000E+01   1.000000E+01   1.000000E+01   1.000000E+01   1.000000E+01   1.000000E+01   1.000000E+01   1.000000E+01   1.000000E+01   1.000000E+01   1.000000E+01   1.500000E+02   1.500000E+02   1.500000E+02   1.500000E+02   1.500000E+02   1.500000E+02   1.500000E+02   1.500000E+02   1.500000E+02   1.500000E+02   1.500000E+02   1.500000E+02   1.500000E+02   1.000000E+01   1.000000E+01   1.000000E+01   1.000000E+01   1.000000E+01   1.000000E+01   1.000000E+01   1.000000E+01   1.000000E+01   1.000000E+01   1.000000E+01   1.000000E+01   1.500000E+02   1.500000E+02   1.000000E+01   1.000000E+01   1.000000E+01   1.000000E+01   1.000000E+01   1.000000E+01   1.000000E+01   1.000000E+01   1.000000E+01   1.000000E+01   1.000000E+01   1.000000E+01   1.000000E+01   1.000000E+01   1.000000E+01   1.000000E+01   1.000000E+01   1.000000E+01   1.000000E+01   1.000000E+01   1.000000E+01   1.000000E+01   1.000000E+01   1.000000E+01   1.000000E+01   1.000000E+01   1.000000E+01   1.000000E+01   1.000000E+01   1.000000E+01   1.000000E+01   1.000000E+01   1.000000E+01   1.000000E+01   1.000000E+01   1.000000E+01   1.000000E+01   1.000000E+01   1.500000E+02   1.500000E+02   1.500000E+02   1.500000E+02   1.500000E+02   1.500000E+02   1.500000E+02   1.500000E+02   1.500000E+02   1.500000E+02   1.500000E+02   1.500000E+02   1.500000E+02   1.500000E+02   1.500000E+02   1.500000E+02   1.500000E+02   1.500000E+02   1.500000E+02   1.500000E+02   1.500000E+02   1.500000E+02   1.500000E+02   1.500000E+02   1.500000E+02   1.500000E+02   1.500000E+02   1.500000E+02   1.500000E+02   1.500000E+02   1.500000E+02   1.500000E+02   1.500000E+02   1.500000E+02   1.500000E+02   1.500000E+02   1.500000E+02   1.000000E+01   1.000000E+01   1.000000E+01   1.000000E+01   1.500000E+02   1.500000E+02   1.000000E+01   1.000000E+01   1.000000E+01   1.500000E+02   1.500000E+02   1.500000E+02   1.000000E+01   1.000000E+01   1.000000E+01   1.000000E+01   1.000000E+01   1.000000E+01   1.000000E+01   1.000000E+01   1.000000E+01   1.500000E+02   1.500000E+02   1.500000E+02   1.000000E+01   1.000000E+01   1.500000E+02   1.500000E+02   1.500000E+02   1.500000E+02   1.500000E+02   1.500000E+02   1.500000E+02   1.500000E+02   1.500000E+02
   1.000000E+01   1.000000E+01   1.000000E+01   1.000000E+01   1.000000E+01   1.000000E+01   1.000000E+01   1.000000E+01   1.000000E+01   1.000000E+01   1.000000E+01   1.000000E+01   1.000000E+01   1.500000E+02   1.500000E+02   1.500000E+02   1.500000E+02   1.500000E+02   1.500000E+02   1.500000E+02   1.500000E+02   1.500000E+02   1.500000E+02   1.500000E+02   1.500000E+02   1.500000E+02   1.000000E+01   1.000000E+01   1.000000E+01   1.000000E+01   1.000000E+01   1.000000E+01   1.000000E+01   1.000000E+01   1.000000E+01   1.000000E+01   1.000000E+01   1.000000E+01   1.500000E+02   1.500000E+02   1.000000E+01   1.000000E+01   1.000000E+01   1.000000E+01   1.000000E+01   1.000000E+01   1.000000E+01   1.000000E+01   1.000000E+01   1.000000E+01   1.000000E+01   1.000000E+01   1.000000E+01   1.000000E+01   1.000000E+01   1.000000E+01   1.000000E+01   1.000000E+01   1.000000E+01   1.000000E+01   1.000000E+01   1.000000E+01   1.000000E+01   1.000000E+01   1.000000E+01   1.000000E+01   1.000000E+01   1.000000E+01   1.000000E+01   1.000000E+01   1.000000E+01   1.000000E+01   1.000000E+01   1.000000E+01   1.000000E+01   1.000000E+01   1.000000E+01   1.000000E+01   1.000000E+01   1.500000E+02   1.500000E+02   1.500000E+02   1.500000E+02   1.500000E+02   1.500000E+02   1.500000E+02   1.500000E+02   1.500000E+02   1.500000E+02   1.500000E+02   1.500000E+02   1.500000E+02   1.500000E+02   1.500000E+02   1.500000E+02   1.500000E+02   1.500000E+02   1.500000E+02   1.500000E+02   1.500000E+02   1.500000E+02   1.500000E+02   1.500000E+02   1.500000E+02   1.500000E+02   1.500000E+02   1.500000E+02   1.500000E+02   1.500000E+02   1.500000E+02   1.500000E+02   1.500000E+02   1.500000E+02   1.500000E+02   1.500000E+02   1.500000E+02   1.500000E+02   1.000000E+01   1.500000E+02   1.500000E+02   1.000000E+01   1.000000E+01   1.000000E+01   1.000000E+01   1.000000E+01   1.000000E+01   1.000000E+01   1.000000E+01   1.000000E+01   1.000000E+01   1.000000E+01   1.000000E+01   1.000000E+01   1.000000E+01   1.000000E+01   1.000000E+01   1.500000E+02   1.500000E+02   1.500000E+02   1.000000E+01   1.000000E+01   1.500000E+02   1.500000E+02   1.500000E+02   1.500000E+02   1.500000E+02   1.500000E+02   1.500000E+02   1.500000E+02   1.500000E+02