# DRN package for  MODFLOW-2005, generated by Flopy.
      6063         0
      6063         0 # stress period 1
         1         1         1       673.40967            50.0
         1         1         2       669.15686            50.0
         1         1         3       665.92694            50.0
         1         1         4       649.49493            50.0
         1         1         5       660.24994            50.0
         1         1         6       627.19586            50.0
         1         1         7       652.06976            50.0
         1         1         8       650.40424            50.0
         1         1         9        674.6075            50.0
         1         1        10        645.9198            50.0
         1         1        11        677.7824            50.0
         1         1        12       646.70233            50.0
         1         1        13        676.2543            50.0
         1         1        14        662.8713            50.0
         1         1        15        659.0571            50.0
         1         1        16        644.8242            50.0
         1         1        17        636.7809            50.0
         1         1        18       622.68506            50.0
         1         1        19        654.8587            50.0
         1         1        20        593.6338            50.0
         1         1        21          540.12            50.0
         1         1        22       533.73474            50.0
         1         1        23       561.73987            50.0
         1         1        24        599.5936            50.0
         1         1        25       556.68195            50.0
         1         1        26         602.394            50.0
         1         1        27         590.075            50.0
         1         1        28          574.96            50.0
         1         1        29        611.2701            50.0
         1         1        30         640.124            50.0
         1         1        31       660.73425            50.0
         1         1        32        691.5485            50.0
         1         1        33        687.6438            50.0
         1         1        34       677.96967            50.0
         1         1        35       608.11084            50.0
         1         1        36        677.7553            50.0
         1         1        37        605.8031            50.0
         1         1        38        641.7973            50.0
         1         1        39        672.8909            50.0
         1         1        40        673.7482            50.0
         1         1        41        629.1047            50.0
         1         1        42       699.65594            50.0
         1         1        43         709.819            50.0
         1         1        44       732.88544            50.0
         1         1        45       733.88257            50.0
         1         1        46        713.8389            50.0
         1         1        47         690.715            50.0
         1         1        48       711.50555            50.0
         1         1        49       711.10376            50.0
         1         1        50       735.91223            50.0
         1         1        51        686.1912            50.0
         1         1        52        709.4144            50.0
         1         1        53        724.2284            50.0
         1         1        54       730.26184            50.0
         1         1        55         698.071            50.0
         1         1        56       688.98926            50.0
         1         1        57        692.9502            50.0
         1         1        58        685.6894            50.0
         1         1        59        704.1611            50.0
         1         1        60       682.92285            50.0
         1         1        61        665.5029            50.0
         1         1        62        671.8807            50.0
         1         1        63       720.24884            50.0
         1         1        64       680.57477            50.0
         1         1        65       680.84064            50.0
         1         1        66        717.0226            50.0
         1         1        67        683.0939            50.0
         1         1        68         637.997            50.0
         1         1        69       595.20404            50.0
         1         1        70       668.89734            50.0
         1         1        71       672.10944            50.0
         1         1        72        685.8052            50.0
         1         1        73        671.4559            50.0
         1         1        74       604.23065            50.0
         1         1        75       585.31995            50.0
         1         1        76        573.0271            50.0
         1         1        77         576.651            50.0
         1         1        78        592.3835            50.0
         1         1        79        570.6311            50.0
         1         1       111       750.72156            50.0
         1         1       112       754.93536            50.0
         1         1       113        757.5665            50.0
         1         1       114         722.976            50.0
         1         1       115        736.7217            50.0
         1         1       116       729.22034            50.0
         1         1       117       758.07153            50.0
         1         1       118       764.04285            50.0
         1         1       119        770.6545            50.0
         1         1       120        759.7384            50.0
         1         1       121        760.2467            50.0
         1         1       122        751.7236            50.0
         1         1       123       750.64307            50.0
         1         1       124       751.06024            50.0
         1         1       125       749.54474            50.0
         1         1       126        744.8062            50.0
         1         1       127        739.1336            50.0
         1         1       128        710.2924            50.0
         1         1       129       660.75757            50.0
         1         1       130        704.6881            50.0
         1         1       131        731.5607            50.0
         1         1       132         736.187            50.0
         1         1       133       739.34033            50.0
         1         1       134        727.2529            50.0
         1         1       135       739.02594            50.0
         1         1       136        745.8999            50.0
         1         1       137       739.76935            50.0
         1         1       138        726.8954            50.0
         1         1       139        725.9475            50.0
         1         1       140        721.3099            50.0
         1         1       141        725.1163            50.0
         1         1       142       740.87506            50.0
         1         1       143          756.37            50.0
         1         1       144        755.2007            50.0
         1         1       145        755.1721            50.0
         1         1       146        745.7234            50.0
         1         1       147       740.01587            50.0
         1         1       148        737.2593            50.0
         1         1       149       738.35876            50.0
         1         1       150        739.9845            50.0
         1         2         1       655.34564            50.0
         1         2         2       668.28326            50.0
         1         2         3        643.9317            50.0
         1         2         4        597.6102            50.0
         1         2         5        579.9863            50.0
         1         2         6        617.4274            50.0
         1         2         7        672.4041            50.0
         1         2         8       640.16736            50.0
         1         2         9        641.2895            50.0
         1         2        10       647.39404            50.0
         1         2        11        635.8524            50.0
         1         2        12       661.12366            50.0
         1         2        13        652.3718            50.0
         1         2        14        658.4038            50.0
         1         2        15       533.71655            50.0
         1         2        16       532.43494            50.0
         1         2        17        562.0848            50.0
         1         2        18        631.6376            50.0
         1         2        19        619.3189            50.0
         1         2        20       617.74054            50.0
         1         2        21        522.1343            50.0
         1         2        22        543.4001            50.0
         1         2        23       544.98083            50.0
         1         2        24        614.4902            50.0
         1         2        25        603.1961            50.0
         1         2        26        589.6464            50.0
         1         2        27       631.75653            50.0
         1         2        28          624.08            50.0
         1         2        29       638.16644            50.0
         1         2        30       649.66113            50.0
         1         2        31       659.74225            50.0
         1         2        32       683.32184            50.0
         1         2        33       671.74634            50.0
         1         2        34        683.6617            50.0
         1         2        35       668.17267            50.0
         1         2        36        670.1141            50.0
         1         2        37        752.6601            50.0
         1         2        38       663.18585            50.0
         1         2        39        699.8196            50.0
         1         2        40       718.25244            50.0
         1         2        41        663.0305            50.0
         1         2        42       701.40106            50.0
         1         2        43        714.4445            50.0
         1         2        44        758.6308            50.0
         1         2        45       728.15393            50.0
         1         2        46       663.90497            50.0
         1         2        47       709.06226            50.0
         1         2        48       723.00793            50.0
         1         2        49        737.3891            50.0
         1         2        50       680.25385            50.0
         1         2        51       718.33966            50.0
         1         2        52        730.8815            50.0
         1         2        53        747.0558            50.0
         1         2        54        733.0239            50.0
         1         2        55       699.67456            50.0
         1         2        56        719.1082            50.0
         1         2        57       708.41437            50.0
         1         2        58        692.7623            50.0
         1         2        59       699.82355            50.0
         1         2        60        703.1175            50.0
         1         2        61        680.1994            50.0
         1         2        62        700.2407            50.0
         1         2        63        730.0374            50.0
         1         2        64       673.85583            50.0
         1         2        65       721.32806            50.0
         1         2        66       707.25635            50.0
         1         2        67        594.2466            50.0
         1         2        68        651.7564            50.0
         1         2        69       653.35675            50.0
         1         2        70        622.8418            50.0
         1         2        71        697.9754            50.0
         1         2        72       724.19666            50.0
         1         2        73        694.2681            50.0
         1         2        74        662.7855            50.0
         1         2        75        565.6837            50.0
         1         2        76       609.01025            50.0
         1         2        77       586.70154            50.0
         1         2        78       587.61676            50.0
         1         2       111        754.4489            50.0
         1         2       112        758.1062            50.0
         1         2       113       752.65393            50.0
         1         2       114       743.48755            50.0
         1         2       115       739.97095            50.0
         1         2       116       784.70795            50.0
         1         2       117       777.19885            50.0
         1         2       118       783.68463            50.0
         1         2       119       772.54706            50.0
         1         2       120       760.10333            50.0
         1         2       121       755.47986            50.0
         1         2       122       738.23926            50.0
         1         2       123       736.93256            50.0
         1         2       124        737.6125            50.0
         1         2       125        745.6696            50.0
         1         2       126        744.8444            50.0
         1         2       127        744.7525            50.0
         1         2       128        716.1652            50.0
         1         2       129       711.19354            50.0
         1         2       130        703.7427            50.0
         1         2       131        731.6307            50.0
         1         2       132       730.08856            50.0
         1         2       133       739.70636            50.0
         1         2       134        732.2657            50.0
         1         2       135        738.1048            50.0
         1         2       136       750.11975            50.0
         1         2       137        744.2562            50.0
         1         2       138       731.56775            50.0
         1         2       139       720.45764            50.0
         1         2       140        722.4802            50.0
         1         2       141        719.4966            50.0
         1         2       142        735.6042            50.0
         1         2       143        739.7739            50.0
         1         2       144       752.73114            50.0
         1         2       145         759.954            50.0
         1         2       146        749.7068            50.0
         1         2       147        745.2818            50.0
         1         2       148       740.31494            50.0
         1         2       149        744.1658            50.0
         1         2       150       744.85736            50.0
         1         3         1        649.3209            50.0
         1         3         2         669.369            50.0
         1         3         3       665.07886            50.0
         1         3         4       652.44354            50.0
         1         3         5        610.2608            50.0
         1         3         6       574.94354            50.0
         1         3         7       632.41766            50.0
         1         3         8        626.0441            50.0
         1         3         9        635.6977            50.0
         1         3        10        622.9444            50.0
         1         3        11       643.02496            50.0
         1         3        12        602.9398            50.0
         1         3        13       648.01025            50.0
         1         3        14       634.99884            50.0
         1         3        15       542.02057            50.0
         1         3        16        534.6878            50.0
         1         3        17        540.0428            50.0
         1         3        18        530.4761            50.0
         1         3        19       528.15424            50.0
         1         3        20       520.52655            50.0
         1         3        21       538.06335            50.0
         1         3        22       529.67957            50.0
         1         3        23        596.0281            50.0
         1         3        24       624.66394            50.0
         1         3        25        630.3372            50.0
         1         3        26         628.699            50.0
         1         3        27        634.2008            50.0
         1         3        28        635.7759            50.0
         1         3        29       644.57446            50.0
         1         3        30        597.9145            50.0
         1         3        31        649.7728            50.0
         1         3        32        681.5256            50.0
         1         3        33        693.2529            50.0
         1         3        34       698.42615            50.0
         1         3        35       704.70874            50.0
         1         3        36        715.5352            50.0
         1         3        37       722.93964            50.0
         1         3        38        719.7667            50.0
         1         3        39        712.4147            50.0
         1         3        40        713.3817            50.0
         1         3        41        704.4454            50.0
         1         3        42        660.2953            50.0
         1         3        43       709.11487            50.0
         1         3        44        731.8705            50.0
         1         3        45       739.51465            50.0
         1         3        46       744.48096            50.0
         1         3        47        730.7076            50.0
         1         3        48       734.47327            50.0
         1         3        49        756.1783            50.0
         1         3        50       749.73663            50.0
         1         3        51        701.6322            50.0
         1         3        52        736.7693            50.0
         1         3        53        750.2317            50.0
         1         3        54        727.4655            50.0
         1         3        55       722.18536            50.0
         1         3        56        688.1543            50.0
         1         3        57       739.73975            50.0
         1         3        58        691.3667            50.0
         1         3        59       723.02466            50.0
         1         3        60       719.67474            50.0
         1         3        61        700.6901            50.0
         1         3        62        670.2431            50.0
         1         3        63        736.8233            50.0
         1         3        64        742.0386            50.0
         1         3        65        738.8188            50.0
         1         3        66       702.83344            50.0
         1         3        67        595.4119            50.0
         1         3        68        583.6355            50.0
         1         3        69        675.0384            50.0
         1         3        70        633.6392            50.0
         1         3        71        700.1782            50.0
         1         3        72        722.8275            50.0
         1         3        73       709.69434            50.0
         1         3        74        705.9242            50.0
         1         3        75        649.6855            50.0
         1         3        76       573.65125            50.0
         1         3        77        614.5701            50.0
         1         3       112        751.8256            50.0
         1         3       113         748.837            50.0
         1         3       114       712.52606            50.0
         1         3       115       724.26996            50.0
         1         3       116        729.8735            50.0
         1         3       117       782.52277            50.0
         1         3       118       767.29834            50.0
         1         3       119        780.7889            50.0
         1         3       120       769.23615            50.0
         1         3       121        759.7242            50.0
         1         3       122        749.9006            50.0
         1         3       123       739.43555            50.0
         1         3       124        739.4194            50.0
         1         3       125       710.90265            50.0
         1         3       126       750.38934            50.0
         1         3       127        743.4344            50.0
         1         3       128       658.60706            50.0
         1         3       129        711.0779            50.0
         1         3       130       740.17596            50.0
         1         3       131        740.8732            50.0
         1         3       132        748.2521            50.0
         1         3       133        743.9659            50.0
         1         3       134       741.37964            50.0
         1         3       135        749.7579            50.0
         1         3       136       749.69135            50.0
         1         3       137        747.0407            50.0
         1         3       138        735.4926            50.0
         1         3       139        724.8541            50.0
         1         3       140       724.78424            50.0
         1         3       141        720.4102            50.0
         1         3       142        719.2373            50.0
         1         3       143         720.446            50.0
         1         3       144       718.47864            50.0
         1         3       145        729.6124            50.0
         1         3       146       758.17596            50.0
         1         3       147       747.43524            50.0
         1         3       148       738.45306            50.0
         1         3       149       755.07495            50.0
         1         3       150       753.30914            50.0
         1         4         1        628.6314            50.0
         1         4         2        618.4242            50.0
         1         4         3       650.57935            50.0
         1         4         4       644.40204            50.0
         1         4         5       625.60114            50.0
         1         4         6        570.7896            50.0
         1         4         7        571.5337            50.0
         1         4         8        631.8881            50.0
         1         4         9         602.088            50.0
         1         4        10         603.058            50.0
         1         4        11        626.1714            50.0
         1         4        12       639.05896            50.0
         1         4        13        644.1787            50.0
         1         4        14        639.0287            50.0
         1         4        15       570.98694            50.0
         1         4        16        542.7811            50.0
         1         4        17        604.1726            50.0
         1         4        18       634.88245            50.0
         1         4        19        620.7566            50.0
         1         4        20        520.6935            50.0
         1         4        21       559.98987            50.0
         1         4        22       613.94293            50.0
         1         4        23       602.40845            50.0
         1         4        24        579.9288            50.0
         1         4        25       630.13226            50.0
         1         4        26        625.6329            50.0
         1         4        27       612.62616            50.0
         1         4        28        625.6605            50.0
         1         4        29       607.28284            50.0
         1         4        30        634.6269            50.0
         1         4        31        648.6782            50.0
         1         4        32        645.3205            50.0
         1         4        33       677.22375            50.0
         1         4        34         684.761            50.0
         1         4        35         702.606            50.0
         1         4        36        720.9147            50.0
         1         4        37        735.7666            50.0
         1         4        38       729.98376            50.0
         1         4        39        719.7978            50.0
         1         4        40       719.45135            50.0
         1         4        41       719.27484            50.0
         1         4        42        708.5013            50.0
         1         4        43        730.9014            50.0
         1         4        44       732.71674            50.0
         1         4        45         722.387            50.0
         1         4        46       749.56366            50.0
         1         4        47        748.7084            50.0
         1         4        48       769.85223            50.0
         1         4        49       751.01855            50.0
         1         4        50       768.80194            50.0
         1         4        51        719.1413            50.0
         1         4        52       759.87646            50.0
         1         4        53       751.37573            50.0
         1         4        54       731.13684            50.0
         1         4        55        740.4849            50.0
         1         4        56       689.16064            50.0
         1         4        57          751.93            50.0
         1         4        58       741.55804            50.0
         1         4        59        740.9831            50.0
         1         4        60        740.6423            50.0
         1         4        61       722.58905            50.0
         1         4        62        738.9899            50.0
         1         4        63        739.3607            50.0
         1         4        64        745.0592            50.0
         1         4        65        719.6327            50.0
         1         4        66       647.12683            50.0
         1         4        67        710.9034            50.0
         1         4        68        651.0174            50.0
         1         4        69        683.9047            50.0
         1         4        70        721.4259            50.0
         1         4        71        711.4295            50.0
         1         4        72        706.3437            50.0
         1         4        73        711.5684            50.0
         1         4        74         703.309            50.0
         1         4        75        687.5651            50.0
         1         4        76        700.2183            50.0
         1         4       113       753.96893            50.0
         1         4       114       736.69385            50.0
         1         4       115       727.63947            50.0
         1         4       116        687.1471            50.0
         1         4       117        719.5648            50.0
         1         4       118        761.2765            50.0
         1         4       119       792.74097            50.0
         1         4       120       776.22815            50.0
         1         4       121        761.4552            50.0
         1         4       122        754.7358            50.0
         1         4       123        755.8645            50.0
         1         4       124       733.35614            50.0
         1         4       125        704.2716            50.0
         1         4       126       742.93445            50.0
         1         4       127        741.3194            50.0
         1         4       128        644.8842            50.0
         1         4       129       732.50806            50.0
         1         4       130         748.168            50.0
         1         4       131       746.89056            50.0
         1         4       132       745.31824            50.0
         1         4       133         739.862            50.0
         1         4       134       744.44727            50.0
         1         4       135         750.293            50.0
         1         4       136        748.1156            50.0
         1         4       137        745.8962            50.0
         1         4       138        742.8793            50.0
         1         4       139         730.302            50.0
         1         4       140         719.771            50.0
         1         4       141       719.67474            50.0
         1         4       142        712.1794            50.0
         1         4       143       717.46497            50.0
         1         4       144        721.5194            50.0
         1         4       145       739.09436            50.0
         1         4       146       734.53265            50.0
         1         4       147       753.61566            50.0
         1         4       148        729.2768            50.0
         1         4       149        743.0244            50.0
         1         4       150       731.02637            50.0
         1         5         1         605.545            50.0
         1         5         2       593.70667            50.0
         1         5         3        644.9219            50.0
         1         5         4       645.58746            50.0
         1         5         5         626.396            50.0
         1         5         6        589.0903            50.0
         1         5         7       566.16724            50.0