# RCH package for  MODFLOW-2005, generated by Flopy.
         3         0
         1        -1 # Stress period 1
INTERNAL               1 (150E15.6) -1 #rech_1                        
   1.000000E-05   1.000000E-05   1.000000E-05   1.000000E-05   1.000000E-05   1.000000E-05   1.000000E-05   1.000000E-05   1.000000E-05   1.000000E-05   1.000000E-05   1.000000E-05   1.000000E-05   1.000000E-05   1.000000E-05   1.000000E-05   1.000000E-05   1.000000E-05   1.000000E-05   1.000000E-05   1.000000E-05   1.000000E-05   1.000000E-05   1.000000E-05   1.000000E-05   1.000000E-05   1.000000E-05   1.000000E-05   1.000000E-05   1.000000E-05   1.000000E-05   1.000000E-05   1.000000E-05   1.000000E-05   1.000000E-05   1.000000E-05   1.000000E-05   1.000000E-05   1.000000E-05   1.000000E-05   1.000000E-05   1.000000E-05   1.000000E-05   1.000000E-05   1.000000E-05   1.000000E-05   1.000000E-05   1.000000E-05   1.000000E-05   1.000000E-05   1.000000E-05   1.000000E-05   1.000000E-05   1.000000E-05   1.000000E-05   1.000000E-05   1.000000E-05   1.000000E-05   1.000000E-05   1.000000E-05   1.000000E-05   1.000000E-05   1.000000E-05   1.000000E-05   1.000000E-05   1.000000E-05   1.000000E-05   1.000000E-05   1.000000E-05   1.000000E-05   1.000000E-05   1.000000E-05   1.000000E-05   1.000000E-05   1.000000E-05   1.000000E-05   1.000000E-05   1.000000E-05   1.000000E-05   3.000000E-03   3.000000E-03   3.000000E-03   3.000000E-03   3.000000E-03   3.000000E-03   3.000000E-03   3.000000E-03   3.000000E-03   3.000000E-03   3.000000E-03   3.000000E-03   3.000000E-03   3.000000E-03   3.000000E-03   3.000000E-03   3.000000E-03   3.000000E-03   3.000000E-03   3.000000E-03   3.000000E-03   3.000000E-03   3.000000E-03   3.000000E-03   3.000000E-03   3.000000E-03   3.000000E-03   3.000000E-03   3.000000E-03   3.000000E-03   3.000000E-03   1.000000E-05   1.000000E-05   1.000000E-05   1.000000E-05   1.000000E-05   1.000000E-05   1.000000E-05   1.000000E-05   1.000000E-05   1.000000E-05   1.000000E-05   1.000000E-05   1.000000E-05   1.000000E-05   1.000000E-05   1.000000E-05   1.000000E-05   1.000000E-05   1.000000E-05   1.000000E-05   1.000000E-05   1.000000E-05   1.000000E-05   1.000000E-05   1.000000E-05   1.000000E-05   1.000000E-05   1.000000E-05   1.000000E-05   1.000000E-05   1.000000E-05   1.000000E-05   1.000000E-05   1.000000E-05   1.000000E-05   1.000000E-05   1.000000E-05   1.000000E-05   1.000000E-05   1.000000E-05
   1.000000E-05   1.000000E-05   1.000000E-05   1.000000E-05   1.000000E-05   1.000000E-05   1.000000E-05   1.000000E-05   1.000000E-05   1.000000E-05   1.000000E-05   1.000000E-05   1.000000E-05   1.000000E-05   1.000000E-05   1.000000E-05   1.000000E-05   1.000000E-05   1.000000E-05   1.000000E-05   1.000000E-05   1.000000E-05   1.000000E-05   1.000000E-05   1.000000E-05   1.000000E-05   1.000000E-05   1.000000E-05   1.000000E-05   1.000000E-05   1.000000E-05   1.000000E-05   1.000000E-05   1.000000E-05   1.000000E-05   1.000000E-05   1.000000E-05   1.000000E-05   1.000000E-05   1.000000E-05   1.000000E-05   1.000000E-05   1.000000E-05   1.000000E-05   1.000000E-05   1.000000E-05   1.000000E-05   1.000000E-05   1.000000E-05   1.000000E-05   1.000000E-05   1.000000E-05   1.000000E-05   1.000000E-05   1.000000E-05   1.000000E-05   1.000000E-05   1.000000E-05   1.000000E-05   1.000000E-05   1.000000E-05   1.000000E-05   1.000000E-05   1.000000E-05   1.000000E-05   1.000000E-05   1.000000E-05   1.000000E-05   1.000000E-05   1.000000E-05   1.000000E-05   1.000000E-05   1.000000E-05   1.000000E-05   1.000000E-05   1.000000E-05   1.000000E-05   1.000000E-05   3.000000E-03   3.000000E-03   3.000000E-03   3.000000E-03   3.000000E-03   3.000000E-03   3.000000E-03   3.000000E-03   3.000000E-03   3.000000E-03   3.000000E-03   3.000000E-03   3.000000E-03   3.000000E-03   3.000000E-03   3.000000E-03   3.000000E-03   3.000000E-03   3.000000E-03   3.000000E-03   3.000000E-03   3.000000E-03   3.000000E-03   3.000000E-03   3.000000E-03   3.000000E-03   3.000000E-03   3.000000E-03   3.000000E-03   3.000000E-03   3.000000E-03   3.000000E-03   1.000000E-05   1.000000E-05   1.000000E-05   1.000000E-05   1.000000E-05   1.000000E-05   1.000000E-05   1.000000E-05   1.000000E-05   1.000000E-05   1.000000E-05   1.000000E-05   1.000000E-05   1.000000E-05   1.000000E-05   1.000000E-05   1.000000E-05   1.000000E-05   1.000000E-05   1.000000E-05   1.000000E-05   1.000000E-05   1.000000E-05   1.000000E-05   1.000000E-05   1.000000E-05   1.000000E-05   1.000000E-05   1.000000E-05   1.000000E-05   1.000000E-05   1.000000E-05   1.000000E-05   1.000000E-05   1.000000E-05   1.000000E-05   1.000000E-05   1.000000E-05   1.000000E-05   1.000000E-05
   1.000000E-05   1.000000E-05   1.000000E-05   1.000000E-05   1.000000E-05   1.000000E-05   1.000000E-05   1.000000E-05   1.000000E-05   1.000000E-05   1.000000E-05   1.000000E-05   1.000000E-05   1.000000E-05   1.000000E-05   1.000000E-05   1.000000E-05   1.000000E-05   1.000000E-05   1.000000E-05   1.000000E-05   1.000000E-05   1.000000E-05   1.000000E-05   1.000000E-05   1.000000E-05   1.000000E-05   1.000000E-05   1.000000E-05   1.000000E-05   1.000000E-05   1.000000E-05   1.000000E-05   1.000000E-05   1.000000E-05   1.000000E-05   1.000000E-05   1.000000E-05   1.000000E-05   1.000000E-05   1.000000E-05   1.000000E-05   1.000000E-05   1.000000E-05   1.000000E-05   1.000000E-05   1.000000E-05   1.000000E-05   1.000000E-05   1.000000E-05   1.000000E-05   1.000000E-05   1.000000E-05   1.000000E-05   1.000000E-05   1.000000E-05   1.000000E-05   1.000000E-05   1.000000E-05   1.000000E-05   1.000000E-05   1.000000E-05   1.000000E-05   1.000000E-05   1.000000E-05   1.000000E-05   1.000000E-05   1.000000E-05   1.000000E-05   1.000000E-05   1.000000E-05   1.000000E-05   1.000000E-05   1.000000E-05   1.000000E-05   1.000000E-05   1.000000E-05   3.000000E-03   3.000000E-03   3.000000E-03   3.000000E-03   3.000000E-03   3.000000E-03   3.000000E-03   3.000000E-03   3.000000E-03   3.000000E-03   3.000000E-03   3.000000E-03   3.000000E-03   3.000000E-03   3.000000E-03   3.000000E-03   3.000000E-03   3.000000E-03   3.000000E-03   3.000000E-03   3.000000E-03   3.000000E-03   3.000000E-03   3.000000E-03   3.000000E-03   3.000000E-03   3.000000E-03   3.000000E-03   3.000000E-03   3.000000E-03   3.000000E-03   3.000000E-03   3.000000E-03   3.000000E-03   1.000000E-05   1.000000E-05   1.000000E-05   1.000000E-05   1.000000E-05   1.000000E-05   1.000000E-05   1.000000E-05   1.000000E-05   1.000000E-05   1.000000E-05   1.000000E-05   1.000000E-05   1.000000E-05   1.000000E-05   1.000000E-05   1.000000E-05   1.000000E-05   1.000000E-05   1.000000E-05   1.000000E-05   1.000000E-05   1.000000E-05   1.000000E-05   1.000000E-05   1.000000E-05   1.000000E-05   1.000000E-05   1.000000E-05   1.000000E-05   1.000000E-05   1.000000E-05   1.000000E-05   1.000000E-05   1.000000E-05   1.000000E-05   1.000000E-05   1.000000E-05   1.000000E-05
   1.000000E-05   1.000000E-05   1.000000E-05   1.000000E-05   1.000000E-05   1.000000E-05   1.000000E-05   1.000000E-05   1.000000E-05   1.000000E-05   1.000000E-05   1.000000E-05   1.000000E-05   1.000000E-05   1.000000E-05   1.000000E-05   1.000000E-05   1.000000E-05   1.000000E-05   1.000000E-05   1.000000E-05   1.000000E-05   1.000000E-05   1.000000E-05   1.000000E-05   1.000000E-05   1.000000E-05   1.000000E-05   1.000000E-05   1.000000E-05   1.000000E-05   1.000000E-05   1.000000E-05   1.000000E-05   1.000000E-05   1.000000E-05   1.000000E-05   1.000000E-05   1.000000E-05   1.000000E-05   1.000000E-05   1.000000E-05   1.000000E-05   1.000000E-05   1.000000E-05   1.000000E-05   1.000000E-05   1.000000E-05   1.000000E-05   1.000000E-05   1.000000E-05   1.000000E-05   1.000000E-05   1.000000E-05   1.000000E-05   1.000000E-05   1.000000E-05   1.000000E-05   1.000000E-05   1.000000E-05   1.000000E-05   1.000000E-05   1.000000E-05   1.000000E-05   1.000000E-05   1.000000E-05   1.000000E-05   1.000000E-05   1.000000E-05   1.000000E-05   1.000000E-05   1.000000E-05   1.000000E-05   1.000000E-05   1.000000E-05   1.000000E-05   3.000000E-03   3.000000E-03   3.000000E-03   3.000000E-03   3.000000E-03   3.000000E-03   3.000000E-03   3.000000E-03   3.000000E-03   3.000000E-03   3.000000E-03   3.000000E-03   3.000000E-03   3.000000E-03   3.000000E-03   3.000000E-03   3.000000E-03   3.000000E-03   3.000000E-03   3.000000E-03   3.000000E-03   3.000000E-03   3.000000E-03   3.000000E-03   3.000000E-03   3.000000E-03   3.000000E-03   3.000000E-03   3.000000E-03   3.000000E-03   3.000000E-03   3.000000E-03   3.000000E-03   3.000000E-03   3.000000E-03   3.000000E-03   1.000000E-05   1.000000E-05   1.000000E-05   1.000000E-05   1.000000E-05   1.000000E-05   1.000000E-05   1.000000E-05   1.000000E-05   1.000000E-05   1.000000E-05   1.000000E-05   1.000000E-05   1.000000E-05   1.000000E-05   1.000000E-05   1.000000E-05   1.000000E-05   1.000000E-05   1.000000E-05   1.000000E-05   1.000000E-05   1.000000E-05   1.000000E-05   1.000000E-05   1.000000E-05   1.000000E-05   1.000000E-05   1.000000E-05   1.000000E-05   1.000000E-05   1.000000E-05   1.000000E-05   1.000000E-05   1.000000E-05   1.000000E-05   1.000000E-05   1.000000E-05
   1.000000E-05   1.000000E-05   1.000000E-05   1.000000E-05   1.000000E-05   1.000000E-05   1.000000E-05   1.000000E-05   1.000000E-05   1.000000E-05   1.000000E-05   1.000000E-05   1.000000E-05   1.000000E-05   1.000000E-05   1.000000E-05   1.000000E-05   1.000000E-05   1.000000E-05   1.000000E-05   1.000000E-05   3.000000E-03   1.000000E-05   1.000000E-05   1.000000E-05   1.000000E-05   1.000000E-05   1.000000E-05   1.000000E-05   1.000000E-05   1.000000E-05   1.000000E-05   1.000000E-05   1.000000E-05   1.000000E-05   1.000000E-05   1.000000E-05   1.000000E-05   1.000000E-05   1.000000E-05   1.000000E-05   1.000000E-05   1.000000E-05   1.000000E-05   1.000000E-05   1.000000E-05   1.000000E-05   1.000000E-05   1.000000E-05   1.000000E-05   1.000000E-05   1.000000E-05   1.000000E-05   1.000000E-05   1.000000E-05   1.000000E-05   1.000000E-05   1.000000E-05   1.000000E-05   1.000000E-05   1.000000E-05   1.000000E-05   1.000000E-05   1.000000E-05   1.000000E-05   1.000000E-05   1.000000E-05   1.000000E-05   1.000000E-05   1.000000E-05   1.000000E-05   1.000000E-05   1.000000E-05   1.000000E-05   1.000000E-05   1.000000E-05   3.000000E-03   3.000000E-03   3.000000E-03   3.000000E-03   3.000000E-03   3.000000E-03   3.000000E-03   3.000000E-03   3.000000E-03   3.000000E-03   3.000000E-03   3.000000E-03   3.000000E-03   3.000000E-03   3.000000E-03   3.000000E-03   3.000000E-03   3.000000E-03   3.000000E-03   3.000000E-03   3.000000E-03   3.000000E-03   3.000000E-03   3.000000E-03   3.000000E-03   3.000000E-03   3.000000E-03   3.000000E-03   3.000000E-03   3.000000E-03   3.000000E-03   3.000000E-03   3.000000E-03   3.000000E-03   3.000000E-03   3.000000E-03   1.000000E-05   1.000000E-05   1.000000E-05   1.000000E-05   1.000000E-05   1.000000E-05   1.000000E-05   1.000000E-05   1.000000E-05   1.000000E-05   1.000000E-05   1.000000E-05   1.000000E-05   1.000000E-05   1.000000E-05   1.000000E-05   1.000000E-05   1.000000E-05   1.000000E-05   1.000000E-05   1.000000E-05   1.000000E-05   1.000000E-05   1.000000E-05   1.000000E-05   1.000000E-05   1.000000E-05   1.000000E-05   1.000000E-05   1.000000E-05   1.000000E-05   1.000000E-05   1.000000E-05   1.000000E-05   1.000000E-05   1.000000E-05   1.000000E-05   1.000000E-05
   1.000000E-05   1.000000E-05   1.000000E-05   1.000000E-05   1.000000E-05   1.000000E-05   1.000000E-05   1.000000E-05   1.000000E-05   1.000000E-05   1.000000E-05   1.000000E-05   1.000000E-05   1.000000E-05   1.000000E-05   1.000000E-05   1.000000E-05   1.000000E-05   3.000000E-03   3.000000E-03   3.000000E-03   3.000000E-03   3.000000E-03   3.000000E-03   1.000000E-05   1.000000E-05   1.000000E-05   1.000000E-05   1.000000E-05   1.000000E-05   1.000000E-05   1.000000E-05   1.000000E-05   1.000000E-05   1.000000E-05   1.000000E-05   1.000000E-05   1.000000E-05   1.000000E-05   1.000000E-05   1.000000E-05   1.000000E-05   1.000000E-05   1.000000E-05   1.000000E-05   1.000000E-05   1.000000E-05   1.000000E-05   1.000000E-05   1.000000E-05   1.000000E-05   1.000000E-05   1.000000E-05   1.000000E-05   1.000000E-05   1.000000E-05   1.000000E-05   1.000000E-05   1.000000E-05   1.000000E-05   1.000000E-05   1.000000E-05   1.000000E-05   1.000000E-05   1.000000E-05   1.000000E-05   1.000000E-05   1.000000E-05   1.000000E-05   1.000000E-05   1.000000E-05   1.000000E-05   1.000000E-05   1.000000E-05   1.000000E-05   1.000000E-05   3.000000E-03   3.000000E-03   3.000000E-03   3.000000E-03   3.000000E-03   3.000000E-03   3.000000E-03   3.000000E-03   3.000000E-03   3.000000E-03   3.000000E-03   3.000000E-03   3.000000E-03   3.000000E-03   3.000000E-03   3.000000E-03   3.000000E-03   3.000000E-03   3.000000E-03   3.000000E-03   3.000000E-03   3.000000E-03   3.000000E-03   3.000000E-03   3.000000E-03   3.000000E-03   3.000000E-03   3.000000E-03   3.000000E-03   3.000000E-03   3.000000E-03   3.000000E-03   3.000000E-03   3.000000E-03   3.000000E-03   3.000000E-03   3.000000E-03   1.000000E-05   1.000000E-05   1.000000E-05   1.000000E-05   1.000000E-05   1.000000E-05   1.000000E-05   1.000000E-05   1.000000E-05   1.000000E-05   1.000000E-05   1.000000E-05   1.000000E-05   1.000000E-05   1.000000E-05   1.000000E-05   1.000000E-05   1.000000E-05   1.000000E-05   1.000000E-05   1.000000E-05   1.000000E-05   1.000000E-05   1.000000E-05   1.000000E-05   1.000000E-05   1.000000E-05   1.000000E-05   1.000000E-05   1.000000E-05   1.000000E-05   1.000000E-05   1.000000E-05   1.000000E-05   1.000000E-05   1.000000E-05   1.000000E-05
   1.000000E-05   1.000000E-05   1.000000E-05   1.000000E-05   1.000000E-05   1.000000E-05   1.000000E-05   1.000000E-05   1.000000E-05   1.000000E-05   1.000000E-05   1.000000E-05   1.000000E-05   1.000000E-05   1.000000E-05   3.000000E-03   3.000000E-03   3.000000E-03   3.000000E-03   3.000000E-03   3.000000E-03   3.000000E-03   3.000000E-03   3.000000E-03   3.000000E-03   3.000000E-03   3.000000E-03   3.000000E-03   3.000000E-03   1.000000E-05   1.000000E-05   1.000000E-05   1.000000E-05   1.000000E-05   1.000000E-05   1.000000E-05   1.000000E-05   1.000000E-05   1.000000E-05   1.000000E-05   1.000000E-05   1.000000E-05   1.000000E-05   1.000000E-05   1.000000E-05   1.000000E-05   1.000000E-05   1.000000E-05   1.000000E-05   1.000000E-05   1.000000E-05   1.000000E-05   1.000000E-05   1.000000E-05   1.000000E-05   1.000000E-05   1.000000E-05   1.000000E-05   1.000000E-05   1.000000E-05   1.000000E-05   1.000000E-05   1.000000E-05   1.000000E-05   1.000000E-05   1.000000E-05   1.000000E-05   1.000000E-05   1.000000E-05   1.000000E-05   1.000000E-05   1.000000E-05   1.000000E-05   1.000000E-05   1.000000E-05   1.000000E-05   3.000000E-03   3.000000E-03   3.000000E-03   3.000000E-03   3.000000E-03   3.000000E-03   3.000000E-03   3.000000E-03   3.000000E-03   3.000000E-03   3.000000E-03   3.000000E-03   3.000000E-03   3.000000E-03   3.000000E-03   3.000000E-03   3.000000E-03   3.000000E-03   3.000000E-03   3.000000E-03   3.000000E-03   3.000000E-03   3.000000E-03   3.000000E-03   3.000000E-03   3.000000E-03   3.000000E-03   3.000000E-03   3.000000E-03   3.000000E-03   3.000000E-03   3.000000E-03   3.000000E-03   3.000000E-03   3.000000E-03   3.000000E-03   3.000000E-03   1.000000E-05   1.000000E-05   1.000000E-05   1.000000E-05   1.000000E-05   1.000000E-05   1.000000E-05   1.000000E-05   1.000000E-05   1.000000E-05   1.000000E-05   1.000000E-05   3.000000E-03   3.000000E-03   3.000000E-03   3.000000E-03   1.000000E-05   1.000000E-05   1.000000E-05   1.000000E-05   1.000000E-05   1.000000E-05   1.000000E-05   3.000000E-03   3.000000E-03   1.000000E-05   1.000000E-05   1.000000E-05   1.000000E-05   1.000000E-05   3.000000E-03   1.000000E-05   1.000000E-05   1.000000E-05   1.000000E-05   1.000000E-05   1.000000E-05
   1.000000E-05   1.000000E-05   1.000000E-05   1.000000E-05   1.000000E-05   1.000000E-05   1.000000E-05   1.000000E-05   1.000000E-05   1.000000E-05   1.000000E-05   1.000000E-05   1.000000E-05   1.000000E-05   1.000000E-05   3.000000E-03   3.000000E-03   3.000000E-03   3.000000E-03   3.000000E-03   3.000000E-03   3.000000E-03   3.000000E-03   3.000000E-03   3.000000E-03   3.000000E-03   3.000000E-03   3.000000E-03   3.000000E-03   1.000000E-05   1.000000E-05   1.000000E-05   1.000000E-05   1.000000E-05   1.000000E-05   1.000000E-05   1.000000E-05   1.000000E-05   1.000000E-05   1.000000E-05   1.000000E-05   1.000000E-05   1.000000E-05   1.000000E-05   1.000000E-05   1.000000E-05   1.000000E-05   1.000000E-05   1.000000E-05   1.000000E-05   1.000000E-05   1.000000E-05   1.000000E-05   1.000000E-05   1.000000E-05   1.000000E-05   1.000000E-05   1.000000E-05   1.000000E-05   1.000000E-05   1.000000E-05   1.000000E-05   1.000000E-05   1.000000E-05   1.000000E-05   1.000000E-05   1.000000E-05   1.000000E-05   1.000000E-05   1.000000E-05   1.000000E-05   1.000000E-05   1.000000E-05   1.000000E-05   1.000000E-05   1.000000E-05   1.000000E-05   3.000000E-03   3.000000E-03   3.000000E-03   3.000000E-03   3.000000E-03   3.000000E-03   3.000000E-03   3.000000E-03   3.000000E-03   3.000000E-03   3.000000E-03   3.000000E-03   3.000000E-03   3.000000E-03   3.000000E-03   3.000000E-03   3.000000E-03   3.000000E-03   3.000000E-03   3.000000E-03   3.000000E-03   3.000000E-03   3.000000E-03   3.000000E-03   3.000000E-03   3.000000E-03   3.000000E-03   3.000000E-03   3.000000E-03   3.000000E-03   3.000000E-03   3.000000E-03   3.000000E-03   3.000000E-03   3.000000E-03   3.000000E-03   3.000000E-03   1.000000E-05   1.000000E-05   1.000000E-05   1.000000E-05   1.000000E-05   1.000000E-05   1.000000E-05   1.000000E-05   1.000000E-05   3.000000E-03   3.000000E-03   3.000000E-03   3.000000E-03   3.000000E-03   3.000000E-03   1.000000E-05   1.000000E-05   1.000000E-05   1.000000E-05   1.000000E-05   1.000000E-05   3.000000E-03   3.000000E-03   3.000000E-03   1.000000E-05   1.000000E-05   1.000000E-05   1.000000E-05   3.000000E-03   3.000000E-03   3.000000E-03   3.000000E-03   1.000000E-05   1.000000E-05   1.000000E-05   1.000000E-05
   1.000000E-05   1.000000E-05   1.000000E-05   1.000000E-05   1.000000E-05   1.000000E-05   1.000000E-05   1.000000E-05   1.000000E-05   1.000000E-05   1.000000E-05   1.000000E-05   1.000000E-05   1.000000E-05   3.000000E-03   3.000000E-03   3.000000E-03   3.000000E-03   3.000000E-03   3.000000E-03   3.000000E-03   3.000000E-03   3.000000E-03   3.000000E-03   3.000000E-03   3.000000E-03   1.000000E-05   1.000000E-05   1.000000E-05   1.000000E-05   1.000000E-05   1.000000E-05   1.000000E-05   1.000000E-05   1.000000E-05   1.000000E-05   1.000000E-05   1.000000E-05   1.000000E-05   1.000000E-05   1.000000E-05   1.000000E-05   1.000000E-05   1.000000E-05   1.000000E-05   1.000000E-05   1.000000E-05   1.000000E-05   1.000000E-05   1.000000E-05   1.000000E-05   1.000000E-05   1.000000E-05   1.000000E-05   1.000000E-05   1.000000E-05   1.000000E-05   1.000000E-05   1.000000E-05   1.000000E-05   1.000000E-05   1.000000E-05   1.000000E-05   1.000000E-05   1.000000E-05   1.000000E-05   1.000000E-05   1.000000E-05   1.000000E-05   1.000000E-05   1.000000E-05   1.000000E-05   1.000000E-05   1.000000E-05   1.000000E-05   1.000000E-05   1.000000E-05   1.000000E-05   3.000000E-03   3.000000E-03   3.000000E-03   3.000000E-03   3.000000E-03   3.000000E-03   3.000000E-03   3.000000E-03   3.000000E-03   3.000000E-03   3.000000E-03   3.000000E-03   3.000000E-03   3.000000E-03   3.000000E-03   3.000000E-03   3.000000E-03   3.000000E-03   3.000000E-03   3.000000E-03   3.000000E-03   3.000000E-03   3.000000E-03   3.000000E-03   3.000000E-03   3.000000E-03   3.000000E-03   3.000000E-03   3.000000E-03   3.000000E-03   3.000000E-03   3.000000E-03   3.000000E-03   3.000000E-03   3.000000E-03   3.000000E-03   1.000000E-05   1.000000E-05   1.000000E-05   1.000000E-05   1.000000E-05   1.000000E-05   1.000000E-05   1.000000E-05   1.000000E-05   3.000000E-03   3.000000E-03   3.000000E-03   3.000000E-03   3.000000E-03   1.000000E-05   1.000000E-05   1.000000E-05   3.000000E-03   1.000000E-05   1.000000E-05   1.000000E-05   3.000000E-03   3.000000E-03   3.000000E-03   1.000000E-05   1.000000E-05   1.000000E-05   3.000000E-03   3.000000E-03   3.000000E-03   3.000000E-03   3.000000E-03   3.000000E-03   3.000000E-03   1.000000E-05   1.000000E-05
   1.000000E-05   1.000000E-05   1.000000E-05   1.000000E-05   1.000000E-05   1.000000E-05   1.000000E-05   1.000000E-05   1.000000E-05   1.000000E-05   1.000000E-05   1.000000E-05   1.000000E-05   1.000000E-05   3.000000E-03   3.000000E-03   3.000000E-03   3.000000E-03   3.000000E-03   3.000000E-03   3.000000E-03   3.000000E-03   3.000000E-03   3.000000E-03   3.000000E-03   3.000000E-03   1.000000E-05   1.000000E-05   1.000000E-05   1.000000E-05   1.000000E-05   1.000000E-05   1.000000E-05   1.000000E-05   1.000000E-05   1.000000E-05   1.000000E-05   1.000000E-05   1.000000E-05   1.000000E-05   1.000000E-05   1.000000E-05   1.000000E-05   1.000000E-05   1.000000E-05   1.000000E-05   1.000000E-05   1.000000E-05   1.000000E-05   1.000000E-05   1.000000E-05   1.000000E-05   1.000000E-05   1.000000E-05   1.000000E-05   1.000000E-05   1.000000E-05   1.000000E-05   1.000000E-05   1.000000E-05   1.000000E-05   1.000000E-05   1.000000E-05   1.000000E-05   1.000000E-05   1.000000E-05   1.000000E-05   1.000000E-05   1.000000E-05   1.000000E-05   1.000000E-05   1.000000E-05   1.000000E-05   1.000000E-05   1.000000E-05   1.000000E-05   1.000000E-05   1.000000E-05   3.000000E-03   3.000000E-03   3.000000E-03   3.000000E-03   3.000000E-03   3.000000E-03   3.000000E-03   3.000000E-03   3.000000E-03   3.000000E-03   3.000000E-03   3.000000E-03   3.000000E-03   3.000000E-03   3.000000E-03   3.000000E-03   3.000000E-03   3.000000E-03   3.000000E-03   3.000000E-03   3.000000E-03   3.000000E-03   3.000000E-03   3.000000E-03   3.000000E-03   3.000000E-03   3.000000E-03   3.000000E-03   3.000000E-03   3.000000E-03   3.000000E-03   3.000000E-03   3.000000E-03   3.000000E-03   3.000000E-03   3.000000E-03   3.000000E-03   1.000000E-05   1.000000E-05   1.000000E-05   1.000000E-05   1.000000E-05   1.000000E-05   1.000000E-05   1.000000E-05   1.000000E-05   1.000000E-05   3.000000E-03   3.000000E-03   1.000000E-05   1.000000E-05   1.000000E-05   1.000000E-05   1.000000E-05   1.000000E-05   1.000000E-05   1.000000E-05   3.000000E-03   3.000000E-03   3.000000E-03   3.000000E-03   1.000000E-05   1.000000E-05   3.000000E-03   3.000000E-03   3.000000E-03   3.000000E-03   3.000000E-03   3.000000E-03   3.000000E-03   3.000000E-03   3.000000E-03
   1.000000E-05   1.000000E-05   1.000000E-05   1.000000E-05   1.000000E-05   1.000000E-05   1.000000E-05   1.000000E-05   1.000000E-05   1.000000E-05   1.000000E-05   1.000000E-05   1.000000E-05   3.000000E-03   3.000000E-03   3.000000E-03   3.000000E-03   3.000000E-03   3.000000E-03   3.000000E-03   3.000000E-03   3.000000E-03   3.000000E-03   3.000000E-03   3.000000E-03   3.000000E-03   1.000000E-05   1.000000E-05   1.000000E-05   1.000000E-05   1.000000E-05   1.000000E-05   1.000000E-05   1.000000E-05   1.000000E-05   1.000000E-05   1.000000E-05   1.000000E-05   1.000000E-05   1.000000E-05   1.000000E-05   1.000000E-05   1.000000E-05   1.000000E-05   1.000000E-05   1.000000E-05   1.000000E-05   1.000000E-05   1.000000E-05   1.000000E-05   1.000000E-05   1.000000E-05   1.000000E-05   1.000000E-05   1.000000E-05   1.000000E-05   1.000000E-05   1.000000E-05   1.000000E-05   1.000000E-05   1.000000E-05   1.000000E-05   1.000000E-05   1.000000E-05   1.000000E-05   1.000000E-05   1.000000E-05   1.000000E-05   1.000000E-05   1.000000E-05   1.000000E-05   1.000000E-05   1.000000E-05   1.000000E-05   1.000000E-05   1.000000E-05   1.000000E-05   1.000000E-05   1.000000E-05   3.000000E-03   3.000000E-03   3.000000E-03   3.000000E-03   3.000000E-03   3.000000E-03   3.000000E-03   3.000000E-03   3.000000E-03   3.000000E-03   3.000000E-03   3.000000E-03   3.000000E-03   3.000000E-03   3.000000E-03   3.000000E-03   3.000000E-03   3.000000E-03   3.000000E-03   3.000000E-03   3.000000E-03   3.000000E-03   3.000000E-03   3.000000E-03   3.000000E-03   3.000000E-03   3.000000E-03   3.000000E-03   3.000000E-03   3.000000E-03   3.000000E-03   3.000000E-03   3.000000E-03   3.000000E-03   3.000000E-03   3.000000E-03   1.000000E-05   1.000000E-05   1.000000E-05   1.000000E-05   1.000000E-05   1.000000E-05   1.000000E-05   1.000000E-05   1.000000E-05   1.000000E-05   1.000000E-05   1.000000E-05   1.000000E-05   1.000000E-05   1.000000E-05   1.000000E-05   1.000000E-05   1.000000E-05   1.000000E-05   1.000000E-05   3.000000E-03   3.000000E-03   3.000000E-03   3.000000E-03   3.000000E-03   1.000000E-05   3.000000E-03   3.000000E-03   3.000000E-03   3.000000E-03   3.000000E-03   3.000000E-03   3.000000E-03   3.000000E-03   3.000000E-03
   1.000000E-05   1.000000E-05   1.000000E-05   1.000000E-05   1.000000E-05   1.000000E-05   1.000000E-05   1.000000E-05   1.000000E-05   1.000000E-05   1.000000E-05   1.000000E-05   1.000000E-05   3.000000E-03   3.000000E-03   3.000000E-03   3.000000E-03   3.000000E-03   3.000000E-03   3.000000E-03   3.000000E-03   3.000000E-03   3.000000E-03   3.000000E-03   3.000000E-03   3.000000E-03   1.000000E-05   1.000000E-05   1.000000E-05   1.000000E-05   1.000000E-05   1.000000E-05   1.000000E-05   1.000000E-05   1.000000E-05   1.000000E-05   1.000000E-05   1.000000E-05   3.000000E-03   3.000000E-03   1.000000E-05   1.000000E-05   1.000000E-05   1.000000E-05   1.000000E-05   1.000000E-05   1.000000E-05   1.000000E-05   1.000000E-05   1.000000E-05   1.000000E-05   1.000000E-05   1.000000E-05   1.000000E-05   1.000000E-05   1.000000E-05   1.000000E-05   1.000000E-05   1.000000E-05   1.000000E-05   1.000000E-05   1.000000E-05   1.000000E-05   1.000000E-05   1.000000E-05   1.000000E-05   1.000000E-05   1.000000E-05   1.000000E-05   1.000000E-05   1.000000E-05   1.000000E-05   1.000000E-05   1.000000E-05   1.000000E-05   1.000000E-05   1.000000E-05   1.000000E-05   3.000000E-03   3.000000E-03   3.000000E-03   3.000000E-03   3.000000E-03   3.000000E-03   3.000000E-03   3.000000E-03   3.000000E-03   3.000000E-03   3.000000E-03   3.000000E-03   3.000000E-03   3.000000E-03   3.000000E-03   3.000000E-03   3.000000E-03   3.000000E-03   3.000000E-03   3.000000E-03   3.000000E-03   3.000000E-03   3.000000E-03   3.000000E-03   3.000000E-03   3.000000E-03   3.000000E-03   3.000000E-03   3.000000E-03   3.000000E-03   3.000000E-03   3.000000E-03   3.000000E-03   3.000000E-03   3.000000E-03   3.000000E-03   3.000000E-03   1.000000E-05   1.000000E-05   1.000000E-05   1.000000E-05   1.000000E-05   1.000000E-05   1.000000E-05   1.000000E-05   1.000000E-05   1.000000E-05   1.000000E-05   1.000000E-05   1.000000E-05   1.000000E-05   1.000000E-05   1.000000E-05   1.000000E-05   1.000000E-05   1.000000E-05   1.000000E-05   1.000000E-05   3.000000E-03   3.000000E-03   3.000000E-03   1.000000E-05   1.000000E-05   3.000000E-03   3.000000E-03   3.000000E-03   3.000000E-03   3.000000E-03   3.000000E-03   3.000000E-03   3.000000E-03   3.000000E-03
   1.000000E-05   1.000000E-05   1.000000E-05   1.000000E-05   1.000000E-05   1.000000E-05   1.000000E-05   1.000000E-05   1.000000E-05   1.000000E-05   1.000000E-05   1.000000E-05   1.000000E-05   3.000000E-03   3.000000E-03   3.000000E-03   3.000000E-03   3.000000E-03   3.000000E-03   3.000000E-03   3.000000E-03   3.000000E-03   3.000000E-03   3.000000E-03   3.000000E-03   3.000000E-03   1.000000E-05   1.000000E-05   1.000000E-05   1.000000E-05   1.000000E-05   1.000000E-05   1.000000E-05   1.000000E-05   1.000000E-05   1.000000E-05   1.000000E-05   1.000000E-05   3.000000E-03   3.000000E-03   1.000000E-05   1.000000E-05   1.000000E-05   1.000000E-05   1.000000E-05   1.000000E-05   1.000000E-05   1.000000E-05   1.000000E-05   1.000000E-05   1.000000E-05   1.000000E-05   1.000000E-05   1.000000E-05   1.000000E-05   1.000000E-05   1.000000E-05   1.000000E-05   1.000000E-05   1.000000E-05   1.000000E-05   1.000000E-05   1.000000E-05   1.000000E-05   1.000000E-05   1.000000E-05   1.000000E-05   1.000000E-05   1.000000E-05   1.000000E-05   1.000000E-05   1.000000E-05   1.000000E-05   1.000000E-05   1.000000E-05   1.000000E-05   1.000000E-05   1.000000E-05   1.000000E-05   3.000000E-03   3.000000E-03   3.000000E-03   3.000000E-03   3.000000E-03   3.000000E-03   3.000000E-03   3.000000E-03   3.000000E-03   3.000000E-03   3.000000E-03   3.000000E-03   3.000000E-03   3.000000E-03   3.000000E-03   3.000000E-03   3.000000E-03   3.000000E-03   3.000000E-03   3.000000E-03   3.000000E-03   3.000000E-03   3.000000E-03   3.000000E-03   3.000000E-03   3.000000E-03   3.000000E-03   3.000000E-03   3.000000E-03   3.000000E-03   3.000000E-03   3.000000E-03   3.000000E-03   3.000000E-03   3.000000E-03   3.000000E-03   3.000000E-03   3.000000E-03   1.000000E-05   1.000000E-05   1.000000E-05   1.000000E-05   1.000000E-05   1.000000E-05   1.000000E-05   1.000000E-05   1.000000E-05   1.000000E-05   1.000000E-05   1.000000E-05   1.000000E-05   1.000000E-05   1.000000E-05   1.000000E-05   1.000000E-05   1.000000E-05   1.000000E-05   3.000000E-03   3.000000E-03   3.000000E-03   1.000000E-05   1.000000E-05   3.000000E-03   3.000000E-03   3.000000E-03   3.000000E-03   3.000000E-03   3.000000E-03   3.000000E-03   3.000000E-03   3.000000E-03