# DIS package for  MODFLOW-2005, generated by Flopy.
         1       100       150         1         4         1
  0
CONSTANT    2.925653E+03                           #delr                          
CONSTANT    2.727600E+03                           #delc                          
CONSTANT    0.000000E+00                           #model_top                     
CONSTANT   -5.000000E+01                           #botm layer 1                  
      1.000000             1  1.000000  SS 
