# PCG package for  MODFLOW-2005, generated by Flopy.
600 25 1 0
1e-06 1e-06 1.0 0 0 3 1.0 
