# DRN package for  MODFLOW-2005, generated by Flopy.
      3095         0
      3095         0 # stress period 1
         1         1         1       673.40967           100.0
         1         1         2       665.92694           100.0
         1         1         3       660.24994           100.0
         1         1         4       652.06976           100.0
         1         1         5        674.6075           100.0
         1         1         6        677.7824           100.0
         1         1         7        676.2543           100.0
         1         1         8        659.0571           100.0
         1         1        13       556.68195           100.0
         1         1        14         590.075           100.0
         1         1        15        611.2701           100.0
         1         1        16       660.73425           100.0
         1         1        17        687.6438           100.0
         1         1        18       608.11084           100.0
         1         1        19        605.8031           100.0
         1         1        20        672.8909           100.0
         1         1        21        629.1047           100.0
         1         1        22         709.819           100.0
         1         1        23       733.88257           100.0
         1         1        24         690.715           100.0
         1         1        25       711.10376           100.0
         1         1        26        686.1912           100.0
         1         1        27        724.2284           100.0
         1         1        28         698.071           100.0
         1         1        29        692.9502           100.0
         1         1        30        704.1611           100.0
         1         1        31        665.5029           100.0
         1         1        32       720.24884           100.0
         1         1        33       680.84064           100.0
         1         1        36       672.10944           100.0
         1         1        34        683.0939           100.0
         1         1        35       595.20404           100.0
         1         1        37        671.4559           100.0
         1         1        38       585.31995           100.0
         1         1        39         576.651           100.0
         1         2         1        649.3209           100.0
         1         2         2       665.07886           100.0
         1         2         3        610.2608           100.0
         1         2         4       632.41766           100.0
         1         2         5        635.6977           100.0
         1         2         6       643.02496           100.0
         1         2         7       648.01025           100.0
         1         2        13        630.3372           100.0
         1         2        14        634.2008           100.0
         1         2        15       644.57446           100.0
         1         2        16        649.7728           100.0
         1         2        17        693.2529           100.0
         1         2        18       704.70874           100.0
         1         2        19       722.93964           100.0
         1         2        20        712.4147           100.0
         1         2        21        704.4454           100.0
         1         2        22       709.11487           100.0
         1         2        26        701.6322           100.0
         1         2        27        750.2317           100.0
         1         2        28       722.18536           100.0
         1         2        29       739.73975           100.0
         1         2        30       723.02466           100.0
         1         2        31        700.6901           100.0
         1         2        32        736.8233           100.0
         1         2        33        738.8188           100.0
         1         2        34        595.4119           100.0
         1         2        35        675.0384           100.0
         1         2        36        700.1782           100.0
         1         2        37       709.69434           100.0
         1         2        38        649.6855           100.0
         1         2        39        614.5701           100.0
         1         3         1         605.545           100.0
         1         3         2        644.9219           100.0
         1         3         3         626.396           100.0
         1         3         4       566.16724           100.0
         1         3         5        563.7059           100.0
         1         3         6        554.1613           100.0
         1         3         7       614.84094           100.0
         1         3        13       559.71515           100.0
         1         3        14       630.40356           100.0
         1         3        15       653.17255           100.0
         1         3        16       660.41345           100.0
         1         3        17        682.3445           100.0
         1         3        18          710.82           100.0
         1         3        19        703.0978           100.0
         1         3        20       710.01587           100.0
         1         3        21       727.70123           100.0
         1         3        22        732.2637           100.0
         1         3        26        756.8995           100.0
         1         3        27        768.6674           100.0
         1         3        28       744.84216           100.0
         1         3        29        750.8129           100.0
         1         3        30       734.47327           100.0
         1         3        31       721.17615           100.0
         1         3        32        740.3629           100.0
         1         3        33        723.3195           100.0
         1         3        34       715.70776           100.0
         1         3        35        681.7601           100.0
         1         3        36        720.2483           100.0
         1         3        37        708.2078           100.0
         1         3        38        697.2993           100.0
         1         3        39        690.0891           100.0
         1         4         1        648.5585           100.0
         1         4         2       603.00745           100.0
         1         4         3       612.17773           100.0
         1         4         4       599.73926           100.0
         1         4         5       633.21924           100.0
         1         4         6       634.97766           100.0
         1         4         7       552.19867           100.0
         1         4        13        633.3662           100.0
         1         4        14        651.0818           100.0
         1         4        15         670.621           100.0
         1         4        16       658.73126           100.0
         1         4        17       618.01556           100.0
         1         4        18        655.1172           100.0
         1         4        19         720.954           100.0
         1         4        20        735.4371           100.0
         1         4        21        745.1974           100.0
         1         4        22        766.3288           100.0
         1         4        26        782.1063           100.0
         1         4        27        754.2669           100.0
         1         4        28       740.90796           100.0
         1         4        29        718.9368           100.0
         1         4        30        682.4591           100.0
         1         4        31        702.8663           100.0
         1         4        32         719.697           100.0
         1         4        33       715.06226           100.0
         1         4        34        720.4706           100.0
         1         4        35        700.3456           100.0
         1         4        36        683.3292           100.0
         1         4        37        681.3872           100.0
         1         4        38        629.4433           100.0
         1         4        23        738.7759           100.0
         1         5         1        691.4685           100.0
         1         5         2        637.8634           100.0
         1         5         3        641.5979           100.0
         1         5         4        638.5384           100.0
         1         5         5       639.60754           100.0
         1         5         6       639.32556           100.0
         1         5         7       648.74005           100.0
         1         5        13       565.16534           100.0
         1         5        14        595.6571           100.0
         1         5        15       707.20386           100.0
         1         5        16        705.5953           100.0
         1         5        17       733.97034           100.0
         1         5        18        671.2974           100.0
         1         5        19        712.5854           100.0
         1         5        20       741.12726           100.0
         1         5        21       762.29785           100.0
         1         5        22        770.2507           100.0
         1         5        23       763.12866           100.0
         1         5        27       721.52277           100.0
         1         5        28        709.2442           100.0
         1         5        29       712.04956           100.0
         1         5        30        687.5463           100.0
         1         5        31       627.38306           100.0
         1         5        32        700.9033           100.0
         1         5        33        702.7384           100.0
         1         5        34        692.0503           100.0
         1         5        35         657.501           100.0
         1         5        36        586.3577           100.0
         1         5        37       652.39374           100.0
         1         5        38        551.5775           100.0
         1         5        24       750.31506           100.0
         1         5        39         647.783           100.0
         1         6         1       675.67004           100.0
         1         6         2       707.27386           100.0
         1         6         3       647.57153           100.0
         1         6         4       635.96606           100.0
         1         6         5        646.9783           100.0
         1         6         6         665.863           100.0
         1         6         7        630.3503           100.0
         1         6        13        672.3151           100.0
         1         6        14       645.33563           100.0
         1         6        15       721.18823           100.0
         1         6        16       679.08887           100.0
         1         6        17        737.6749           100.0
         1         6        18       724.18115           100.0
         1         6        19        749.2286           100.0
         1         6        20       745.48126           100.0
         1         6        21         771.322           100.0
         1         6        22       761.61224           100.0
         1         6        23         734.433           100.0
         1         6        24       658.29297           100.0
         1         6        27        720.5793           100.0
         1         6        28        700.7932           100.0
         1         6        29        666.8729           100.0
         1         6        30        678.2364           100.0
         1         6        31       669.43976           100.0
         1         6        32        660.0424           100.0
         1         6        33          665.37           100.0
         1         6        34       641.68787           100.0
         1         6        35        653.5758           100.0
         1         6        36       617.70355           100.0
         1         6        37       631.61914           100.0
         1         6        38       617.19244           100.0
         1         6        39       636.34424           100.0
         1         6        12       579.95026           100.0
         1         7         1        690.9447           100.0
         1         7         2        690.1099           100.0
         1         7         3        639.7847           100.0
         1         7         4        642.9038           100.0
         1         7         5        630.3371           100.0
         1         7         6        574.5955           100.0
         1         7         7       628.46906           100.0
         1         7        12       610.57556           100.0
         1         7        13       656.92035           100.0
         1         7        14         709.163           100.0
         1         7        15       723.02875           100.0
         1         7        16        734.7885           100.0
         1         7        17       743.60565           100.0
         1         7        18       749.27234           100.0
         1         7        19        746.7927           100.0
         1         7        20       757.71106           100.0
         1         7        21       767.49603           100.0
         1         7        22        744.6647           100.0
         1         7        23       736.08636           100.0
         1         7        28         635.712           100.0
         1         7        29       581.14557           100.0
         1         7        30       602.35455           100.0
         1         7        31       563.80096           100.0
         1         7        32         624.356           100.0
         1         7        33        630.9585           100.0
         1         7        34        628.8123           100.0
         1         7        35        639.6532           100.0
         1         7        37       618.38916           100.0
         1         7        38        628.6193           100.0
         1         7        39       625.76514           100.0
         1         8         1       671.27966           100.0
         1         8         2        671.8949           100.0
         1         8         3       667.38086           100.0
         1         8         4        634.3552           100.0
         1         8         5        659.6833           100.0
         1         8         6        628.6756           100.0
         1         8         7         509.339           100.0
         1         8        12        673.9097           100.0
         1         8        13       695.50653           100.0
         1         8        14       669.66986           100.0
         1         8        15       706.28815           100.0
         1         8        16        708.0566           100.0
         1         8        17       716.42883           100.0
         1         8        18        739.4172           100.0
         1         8        19        740.0683           100.0
         1         8        20        748.7977           100.0
         1         8        21        737.8679           100.0
         1         8        22        711.4073           100.0
         1         8        23        695.5757           100.0
         1         8        28       671.10205           100.0
         1         8        29        597.6616           100.0
         1         8        30        591.6086           100.0
         1         8        31        619.9348           100.0
         1         8        32       599.97455           100.0
         1         8        33       571.68097           100.0
         1         8        34       597.04065           100.0
         1         8        35        619.6507           100.0
         1         8        37        592.2201           100.0
         1         8        38        605.0244           100.0
         1         8        39        575.1339           100.0
         1         8        24       681.06244           100.0
         1         8        27        651.9371           100.0
         1         9         2       657.55725           100.0
         1         9         3        642.4394           100.0
         1         9         4        650.1351           100.0
         1         9         5        642.5404           100.0
         1         9         6       592.29193           100.0
         1         9         7       501.38278           100.0
         1         9        12        651.7277           100.0
         1         9        13       641.18884           100.0
         1         9        14        639.4785           100.0
         1         9        15        626.9956           100.0
         1         9        16        699.7692           100.0
         1         9        17        700.1111           100.0
         1         9        18       707.81464           100.0
         1         9        19       699.73413           100.0
         1         9        20        706.6788           100.0
         1         9        21       695.81537           100.0
         1         9        22       699.74963           100.0
         1         9        23        689.4685           100.0
         1         9        27        581.9773           100.0
         1         9        28       633.29144           100.0
         1         9        29       577.64856           100.0
         1         9        30        511.2213           100.0
         1         9        31        534.6586           100.0
         1         9        32        557.2724           100.0
         1         9        33       611.36755           100.0
         1         9        34        620.5029           100.0
         1         9        35        594.4845           100.0
         1         9        37          552.13           100.0
         1         9        38        600.4544           100.0
         1         9        39        612.9022           100.0
         1         9        26        589.9899           100.0
         1        10         2       650.47925           100.0
         1        10         3        611.7437           100.0
         1        10         4       642.83405           100.0
         1        10         5        638.6099           100.0
         1        10         6       637.62646           100.0
         1        10         7       629.78906           100.0
         1        10        12        562.1004           100.0
         1        10        13       650.51575           100.0
         1        10        14        663.1249           100.0
         1        10        15       664.75903           100.0
         1        10        16        670.4811           100.0
         1        10        17       666.68335           100.0
         1        10        18         677.034           100.0
         1        10        19       684.83765           100.0
         1        10        20       695.83655           100.0
         1        10        21        683.5583           100.0
         1        10        22        674.8967           100.0
         1        10        23          673.17           100.0
         1        10        26         613.057           100.0
         1        10        27       622.13104           100.0
         1        10        28        602.7643           100.0
         1        10        29        597.3115           100.0
         1        10        30       610.78357           100.0
         1        10        31       600.47235           100.0
         1        10        32       606.46344           100.0
         1        10        33        619.7279           100.0
         1        10        34       619.91174           100.0
         1        10        35       538.60504           100.0
         1        11         2       626.57367           100.0
         1        11         3       552.68933           100.0
         1        11         4        602.1712           100.0
         1        11         5        619.6242           100.0
         1        11         6       623.98676           100.0
         1        11         7       628.96893           100.0
         1        11        12       547.37006           100.0
         1        11        13       579.30273           100.0
         1        11        14       654.54346           100.0
         1        11        15        647.8674           100.0
         1        11        16       662.26154           100.0
         1        11        17       666.21814           100.0
         1        11        18        677.9763           100.0
         1        11        19        664.0568           100.0
         1        11        20        670.9635           100.0
         1        11        26        619.3823           100.0
         1        11        27        536.2865           100.0
         1        11        28       609.93744           100.0
         1        11        29       557.80756           100.0
         1        11        30       571.40735           100.0
         1        11        31       589.81573           100.0
         1        11        32       602.72394           100.0
         1        11        33        614.0364           100.0
         1        11        11        612.8455           100.0
         1        12         2       630.08417           100.0
         1        12         3        573.4325           100.0
         1        12         4        620.7716           100.0
         1        12         5         528.702           100.0
         1        12         6       616.04346           100.0
         1        12         7       563.84894           100.0
         1        12        11       557.20215           100.0
         1        12        12        628.0362           100.0
         1        12        13       625.38477           100.0
         1        12        14       651.67865           100.0
         1        12        15        696.2157           100.0
         1        12        16        666.7207           100.0
         1        12        17       615.42914           100.0
         1        12        18        663.7792           100.0
         1        12        19       664.65576           100.0
         1        12        27       603.44794           100.0
         1        12        28       478.91287           100.0
         1        12        31        602.7427           100.0
         1        12        32         599.663           100.0
         1        12         8       604.16486           100.0
         1        12        10         621.178           100.0
         1        13         2        634.4913           100.0
         1        13         3       629.75104           100.0
         1        13         4       629.89624           100.0
         1        13         5         623.427           100.0
         1        13         6       611.90497           100.0
         1        13         7       611.11475           100.0
         1        13         8        501.6032           100.0
         1        13        10        593.8484           100.0
         1        13        11        519.0277           100.0
         1        13        12        622.6888           100.0
         1        13        13         624.163           100.0
         1        13        14       645.07983           100.0
         1        13        15        651.4094           100.0
         1        13        16        652.8819           100.0
         1        13        17       653.91693           100.0
         1        13        18        678.6743           100.0
         1        13        19        692.8422           100.0
         1        13        27       604.66895           100.0
         1        13         1       634.39075           100.0
         1        13         9        480.1597           100.0
         1        13        20        692.4774           100.0
         1        13        26       612.49176           100.0
         1        13        21        653.6935           100.0
         1        13        22       650.43317           100.0
         1        13        24       607.56195           100.0
         1        13        25        618.2012           100.0
         1        14         1        632.7421           100.0
         1        14         2       632.35614           100.0
         1        14         3         623.382           100.0
         1        14         4       571.33575           100.0
         1        14         5       621.41315           100.0
         1        14         6       599.98193           100.0
         1        14         7        612.0098           100.0
         1        14         8       574.01056           100.0
         1        14         9       490.40356           100.0
         1        14        10       490.10693           100.0
         1        14        11       594.86755           100.0
         1        14        12       588.58307           100.0
         1        14        16        656.8419           100.0
         1        14        17        643.6429           100.0
         1        14        18        682.2006           100.0
         1        14        19       679.72095           100.0
         1        14        20       676.53613           100.0
         1        14        21        638.9955           100.0
         1        14        22        639.6577           100.0
         1        14        24        611.3533           100.0
         1        14        25        609.0205           100.0
         1        14        26        612.0541           100.0
         1        14        23        641.5206           100.0
         1        15         1       649.74664           100.0
         1        15         2        686.8486           100.0
         1        15         3         630.683           100.0
         1        15         4        635.7017           100.0
         1        15         5        640.8045           100.0
         1        15         6        654.2472           100.0
         1        15         7        495.9946           100.0
         1        15         8       489.84744           100.0
         1        15         9        604.9437           100.0
         1        15        10       545.05676           100.0
         1        15        11       625.58264           100.0
         1        15        17        667.7292           100.0
         1        15        18        677.3734           100.0
         1        15        19        660.0537           100.0
         1        15        20        669.7914           100.0
         1        15        21        650.5079           100.0
         1        15        22         620.818           100.0
         1        15        23       616.77466           100.0
         1        15        24       630.98645           100.0
         1        15        25        594.7248           100.0
         1        15        26       605.04974           100.0
         1        16         1       678.96027           100.0
         1        16         2        638.3594           100.0
         1        16         3        667.2264           100.0
         1        16         4       659.88275           100.0
         1        16         5       559.61475           100.0
         1        16         6       615.54333           100.0
         1        16         7        555.3145           100.0
         1        16         8        556.8041           100.0
         1        16         9       571.47076           100.0
         1        16        10       629.80634           100.0
         1        16        11        641.4902           100.0
         1        16        17        656.2764           100.0
         1        16        18        673.6373           100.0
         1        16        19       643.20856           100.0
         1        16        20        641.9204           100.0
         1        16        21        570.5564           100.0
         1        16        22         620.501           100.0
         1        16        23        601.9791           100.0
         1        16        24        588.3511           100.0
         1        16        25        589.6835           100.0
         1        16        12        645.0263           100.0
         1        17         1       679.97107           100.0
         1        17         2       678.41705           100.0
         1        17         3        662.8872           100.0
         1        17         4        660.1292           100.0
         1        17         5        615.6208           100.0
         1        17         6        539.3804           100.0
         1        17         7        599.9607           100.0
         1        17         8       590.18604           100.0
         1        17         9        610.0059           100.0
         1        17        10        643.5978           100.0
         1        17        11        650.0437           100.0
         1        17        12        654.6544           100.0
         1        17        17       608.55347           100.0
         1        17        18       638.99786           100.0
         1        17        19        567.3022           100.0
         1        17        20        613.3294           100.0
         1        17        21        629.4566           100.0
         1        17        22        624.3832           100.0
         1        17        23        623.7199           100.0
         1        17        24       530.71643           100.0
         1        17        13       670.91956           100.0
         1        17        14        646.7199           100.0
         1        17        15        665.7313           100.0
         1        17        16        658.4185           100.0