# RIV package for  MODFLOW-2005, generated by Flopy.
      3696         0
      3696         0 # stress period 1
         1       100        62       489.23557         50000.0       484.23557
         1       100        62       512.52625         50000.0       507.52625
         1       100        62       495.88428         50000.0       490.88428
         1       100        62       490.43365         50000.0       485.43365
         1       100        62       489.26047         50000.0       484.26047
         1        99        62       499.96442         50000.0       494.96442
         1        99        62       506.66635         50000.0       501.66635
         1        99        62       489.19144         50000.0       484.19144
         1        99        62        500.1819         50000.0        495.1819
         1        99        62       488.76675         50000.0       483.76675
         1        98        62       501.73163         50000.0       496.73163
         1        98        62       506.38834         50000.0       501.38834
         1        98        62       507.52893         50000.0       502.52893
         1        98        62        542.8023         50000.0        537.8023
         1        98        62        499.9523         50000.0        494.9523
         1        98        62        550.3756         50000.0        545.3756
         1        98        62       489.23566         50000.0       484.23566
         1        97        62       492.35056         50000.0       487.35056
         1        97        62       494.77408         50000.0       489.77408
         1        97        62       490.23495         50000.0       485.23495
         1        97        62       490.02863         50000.0       485.02863
         1        97        61       490.03574         50000.0       485.03574
         1        97        62       490.36722         50000.0       485.36722
         1        96        61       493.27048         50000.0       488.27048
         1        96        61         489.267         50000.0         484.267
         1        96        61        489.4875         50000.0        484.4875
         1        96        61       490.49792         50000.0       485.49792
         1        96         1       440.03275         50000.0       435.03275
         1        96         1        440.0657         50000.0        435.0657
         1        96         1       451.45212         50000.0       446.45212
         1        96        61       513.80774         50000.0       508.80774
         1        96        61       491.47562         50000.0       486.47562
         1        96        61       489.91177         50000.0       484.91177
         1        95         1       440.03284         50000.0       435.03284
         1        95         1       440.03284         50000.0       435.03284
         1        95         1       440.03284         50000.0       435.03284
         1        95         1       440.04474         50000.0       435.04474
         1        95         2       439.49506         50000.0       434.49506
         1        95         2       442.69333         50000.0       437.69333
         1        95        61       489.16486         50000.0       484.16486
         1        95        61       489.66095         50000.0       484.66095
         1        95         2       440.06564         50000.0       435.06564
         1        95         2        439.9917         50000.0        434.9917
         1        95         2       439.89737         50000.0       434.89737
         1        95         3       439.18182         50000.0       434.18182
         1        95         3       433.02856         50000.0       428.02856
         1        95        61       489.48288         50000.0       484.48288
         1        95        61        489.9507         50000.0        484.9507
         1        95        61         490.224         50000.0         485.224
         1        95        62       492.54224         50000.0       487.54224
         1        95         3        439.2201         50000.0        434.2201
         1        95         3       438.91046         50000.0       433.91046
         1        95        62        489.4668         50000.0        484.4668
         1        95         3       440.11588         50000.0       435.11588
         1        95         3        438.9485         50000.0        433.9485
         1        95         3        436.2207         50000.0        431.2207
         1        95        62        489.5711         50000.0        484.5711
         1        95         3       439.65823         50000.0       434.65823
         1        95         4       436.29276         50000.0       431.29276
         1        95        62        489.4917         50000.0        484.4917
         1        94         4       438.89273         50000.0       433.89273
         1        94         4       438.55865         50000.0       433.55865
         1        94         4        440.9331         50000.0        435.9331
         1        94        62       490.09143         50000.0       485.09143
         1        94         4       452.57468         50000.0       447.57468
         1        94         4         441.138         50000.0         436.138
         1        94        61       490.24652         50000.0       485.24652
         1        94        62       489.50403         50000.0       484.50403
         1        94         4       446.95557         50000.0       441.95557
         1        94         4       441.83252         50000.0       436.83252
         1        94        61       489.52426         50000.0       484.52426
         1        94         4        439.2703         50000.0        434.2703
         1        94         5       442.55563         50000.0       437.55563
         1        94         5       443.44083         50000.0       438.44083
         1        94        61       489.66525         50000.0       484.66525
         1        93         5        439.9312         50000.0        434.9312
         1        93         5        441.7952         50000.0        436.7952
         1        93        61        489.6654         50000.0        484.6654
         1        93         5       438.79852         50000.0       433.79852
         1        93         5        439.5363         50000.0        434.5363
         1        93        61       489.66544         50000.0       484.66544
         1        93        62       489.66525         50000.0       484.66525
         1        93         5       453.66385         50000.0       448.66385
         1        93         6       439.40955         50000.0       434.40955
         1        93        62       489.66574         50000.0       484.66574
         1        93        62       489.66528         50000.0       484.66528
         1        93         5       438.57837         50000.0       433.57837
         1        93         6       440.01273         50000.0       435.01273
         1        93        62       489.49832         50000.0       484.49832
         1        93        62        489.6653         50000.0        484.6653
         1        92         5       439.43262         50000.0       434.43262
         1        92        62        494.8498         50000.0        489.8498
         1        92        62        489.6578         50000.0        484.6578
         1        92         5       438.38995         50000.0       433.38995
         1        92        62       489.46448         50000.0       484.46448
         1        92         5        438.3925         50000.0        433.3925
         1        92         5       438.64905         50000.0       433.64905
         1        92        62       489.66495         50000.0       484.66495
         1        92         5        439.0782         50000.0        434.0782
         1        92        62        489.5128         50000.0        484.5128
         1        92        62       489.66547         50000.0       484.66547
         1        92         5       439.33023         50000.0       434.33023
         1        92        62       489.66528         50000.0       484.66528
         1        92        62       489.67136         50000.0       484.67136
         1        91         5       440.16052         50000.0       435.16052
         1        91         6       440.32816         50000.0       435.32816
         1        91        62       489.54324         50000.0       484.54324
         1        91        62       496.95706         50000.0       491.95706
         1        91         5        439.3754         50000.0        434.3754
         1        91         5       440.32797         50000.0       435.32797
         1        91         6        439.5722         50000.0        434.5722
         1        91         6       440.36102         50000.0       435.36102
         1        91         7        440.3609         50000.0        435.3609
         1        91        62       489.51184         50000.0       484.51184
         1        91        62        573.5267         50000.0        568.5267
         1        91         5       439.31155         50000.0       434.31155
         1        91         6       440.36096         50000.0       435.36096
         1        91         7       440.36084         50000.0       435.36084
         1        91         7       440.36084         50000.0       435.36084
         1        91        62         488.445         50000.0         483.445
         1        91         5       440.29443         50000.0       435.29443
         1        91         7       440.36078         50000.0       435.36078
         1        91         7        440.3282         50000.0        435.3282
         1        91         7       440.36093         50000.0       435.36093
         1        91         8       440.36105         50000.0       435.36105
         1        91         8        440.3608         50000.0        435.3608
         1        91         8        435.4392         50000.0        430.4392
         1        91        62        489.6224         50000.0        484.6224
         1        90         5         440.328         50000.0         435.328
         1        90         7       440.31155         50000.0       435.31155
         1        90         7       440.34027         50000.0       435.34027
         1        90         7       440.35254         50000.0       435.35254
         1        90         8       440.26645         50000.0       435.26645
         1        90         8        440.2552         50000.0        435.2552
         1        90         8       440.16406         50000.0       435.16406
         1        90         8       435.28864         50000.0       430.28864
         1        90         9       435.33072         50000.0       430.33072
         1        90        62        490.3791         50000.0        485.3791
         1        90         5       439.97583         50000.0       434.97583
         1        90         8       440.16418         50000.0       435.16418
         1        90         9       447.07996         50000.0       442.07996
         1        90        62       481.22678         50000.0       476.22678
         1        90        62        492.9338         50000.0        487.9338
         1        90       113        606.7539         50000.0        601.7539
         1        90       113        605.8281         50000.0        600.8281
         1        90       113        609.8407         50000.0        604.8407
         1        90       113        615.5405         50000.0        610.5405
         1        90       114        596.7224         50000.0        591.7224
         1        90       118       601.28033         50000.0       596.28033
         1        90       118       583.22485         50000.0       578.22485
         1        90       118        583.9725         50000.0        578.9725
         1        90       119        609.6617         50000.0        604.6617
         1        90         5       439.76562         50000.0       434.76562
         1        90         9       440.39413         50000.0       435.39413
         1        90         9       435.81686         50000.0       430.81686
         1        90        62       479.89328         50000.0       474.89328
         1        90       108       567.69934         50000.0       562.69934
         1        90       108       568.42737         50000.0       563.42737
         1        90       119       604.52893         50000.0       599.52893
         1        90       120       609.38934         50000.0       604.38934
         1        90       120        609.9765         50000.0        604.9765
         1        90       120        615.2556         50000.0        610.2556
         1        90       112        579.3056         50000.0        574.3056
         1        90       113       575.51373         50000.0       570.51373
         1        90       113       570.55286         50000.0       565.55286
         1        90       113       576.13995         50000.0       571.13995
         1        90       113        578.9443         50000.0        573.9443
         1        90       114        572.2898         50000.0        567.2898
         1        90       114        581.2839         50000.0        576.2839
         1        90       114        584.0933         50000.0        579.0933
         1        90       118        625.0675         50000.0        620.0675
         1        90       118        589.7749         50000.0        584.7749
         1        90       119       593.90765         50000.0       588.90765
         1        90         5        439.5976         50000.0        434.5976
         1        90         9       440.15378         50000.0       435.15378
         1        90        62        490.5304         50000.0        485.5304
         1        90       112        575.4518         50000.0        570.4518
         1        90       112         574.718         50000.0         569.718
         1        90       112        578.3292         50000.0        573.3292
         1        90       112        575.8434         50000.0        570.8434
         1        90       108       564.91974         50000.0       559.91974
         1        90       108       564.85693         50000.0       559.85693
         1        90       108       565.43964         50000.0       560.43964
         1        90       119       586.07654         50000.0       581.07654
         1        90       119       605.14905         50000.0       600.14905
         1        90       119        590.8538         50000.0        585.8538
         1        90       120        590.2443         50000.0        585.2443
         1        90       120       622.49603         50000.0       617.49603
         1        90       113        576.2743         50000.0        571.2743
         1        90       114        581.3744         50000.0        576.3744
         1        90       114       580.65356         50000.0       575.65356
         1        90       118        582.1411         50000.0        577.1411
         1        90       119        589.4695         50000.0        584.4695
         1        90       119        587.2004         50000.0        582.2004
         1        90         5       439.89508         50000.0       434.89508
         1        90         9       440.29584         50000.0       435.29584
         1        90         9         435.759         50000.0         430.759
         1        90        62        489.6858         50000.0        484.6858
         1        90       109        570.0175         50000.0        565.0175
         1        90       110        570.0997         50000.0        565.0997
         1        90       111        574.5596         50000.0        569.5596
         1        90       111         576.506         50000.0         571.506
         1        90       111        585.0584         50000.0        580.0584
         1        90       111         584.275         50000.0         579.275
         1        90       109        569.8169         50000.0        564.8169
         1        90       109       570.01117         50000.0       565.01117
         1        90       115       588.55347         50000.0       583.55347
         1        90       112       571.22485         50000.0       566.22485
         1        90       112       570.08435         50000.0       565.08435
         1        90       108        579.9045         50000.0        574.9045
         1        90       108        564.9733         50000.0        559.9733
         1        90       108       564.89124         50000.0       559.89124
         1        90       109        565.6924         50000.0        560.6924
         1        90       120        614.9793         50000.0        609.9793
         1        90       114       578.31683         50000.0       573.31683
         1        90       114       590.40564         50000.0       585.40564
         1        90       115       589.62177         50000.0       584.62177
         1        90       115       590.18536         50000.0       585.18536
         1        90       118        585.4878         50000.0        580.4878
         1        89         5        440.0765         50000.0        435.0765
         1        89         9        440.7157         50000.0        435.7157
         1        89         9       435.32443         50000.0       430.32443
         1        89        62       485.44293         50000.0       480.44293
         1        89       109        569.6954         50000.0        564.6954
         1        89       109       569.98834         50000.0       564.98834
         1        89       110        569.9207         50000.0        564.9207
         1        89       110        569.7268         50000.0        564.7268
         1        89       110        569.7366         50000.0        564.7366
         1        89       110       570.87225         50000.0       565.87225
         1        89       110        570.8171         50000.0        565.8171
         1        89       111        569.7313         50000.0        564.7313
         1        89       111       569.76355         50000.0       564.76355
         1        89       109       599.83563         50000.0       594.83563
         1        89       115       580.73486         50000.0       575.73486
         1        89       115        581.0935         50000.0        576.0935
         1        89       111       569.73083         50000.0       564.73083
         1        89       112        569.7709         50000.0        564.7709
         1        89       107       568.89606         50000.0       563.89606
         1        89       108        567.1796         50000.0        562.1796
         1        89       109       593.43604         50000.0       588.43604
         1        89       109        605.6874         50000.0        600.6874
         1        89       120       590.57043         50000.0       585.57043
         1        89       115       578.31836         50000.0       573.31836
         1        89       115       580.16925         50000.0       575.16925
         1        89       117       580.49664         50000.0       575.49664
         1        89       118        581.7065         50000.0        576.7065
         1        89         5       440.10092         50000.0       435.10092
         1        89         9       436.90952         50000.0       431.90952
         1        89        62        482.4077         50000.0        477.4077
         1        89       121       593.56244         50000.0       588.56244
         1        89       121        593.8584         50000.0        588.8584
         1        89       121        594.7427         50000.0        589.7427
         1        89       116        583.6694         50000.0        578.6694
         1        89       110        569.7278         50000.0        564.7278
         1        89       110       569.75354         50000.0       564.75354
         1        89       115        579.4796         50000.0        574.4796
         1        89       116        580.7885         50000.0        575.7885
         1        89       107       564.34644         50000.0       559.34644
         1        89       108        565.8925         50000.0        560.8925
         1        89       120        590.0719         50000.0        585.0719
         1        89       117        580.1159         50000.0        575.1159
         1        89         5        440.1311         50000.0        435.1311
         1        89         5       440.37903         50000.0       435.37903
         1        89         9       445.88788         50000.0       440.88788
         1        89         9       435.25546         50000.0       430.25546
         1        89        62       479.59305         50000.0       474.59305
         1        89        62       485.89117         50000.0       480.89117
         1        89       117         584.776         50000.0         579.776
         1        89       117       583.04846         50000.0       578.04846
         1        89       117        580.3126         50000.0        575.3126
         1        89       122       594.59094         50000.0       589.59094
         1        89       122       597.30566         50000.0       592.30566
         1        89       121       591.56915         50000.0       586.56915
         1        89       121        593.9541         50000.0        588.9541
         1        89       121       594.74493         50000.0       589.74493
         1        89       121        594.7686         50000.0        589.7686
         1        89       116       584.78076         50000.0       579.78076
         1        89       108        562.4098         50000.0        557.4098
         1        89       120        589.6085         50000.0        584.6085
         1        89       120        592.3229         50000.0        587.3229
         1        89       117        581.0783         50000.0        576.0783
         1        89         5        440.4266         50000.0        435.4266
         1        89         9       440.17282         50000.0       435.17282
         1        89         9       434.78555         50000.0       429.78555
         1        89        62       489.86298         50000.0       484.86298
         1        89        62        480.2271         50000.0        475.2271
         1        89       117        580.0251         50000.0        575.0251
         1        89       117        587.6902         50000.0        582.6902
         1        89       122       596.36206         50000.0       591.36206
         1        89       122        589.6665         50000.0        584.6665
         1        89       116       585.41614         50000.0       580.41614
         1        89       107       560.96906         50000.0       555.96906
         1        89       108        564.7241         50000.0        559.7241
         1        89       122        596.4231         50000.0        591.4231
         1        88         5        440.2936         50000.0        435.2936
         1        88         6        440.4264         50000.0        435.4264
         1        88        25       444.96295         50000.0       439.96295
         1        88        26       446.59723         50000.0       441.59723
         1        88        26         447.997         50000.0         442.997
         1        88        26       448.78763         50000.0       443.78763
         1        88        26        449.4747         50000.0        444.4747
         1        88        26       449.66202         50000.0       444.66202
         1        88        27       449.69482         50000.0       444.69482
         1        88        27       449.66833         50000.0       444.66833
         1        88        27       449.66208         50000.0       444.66208
         1        88        27        449.6622         50000.0        444.6622
         1        88        28       449.66205         50000.0       444.66205
         1        88        28        449.6622         50000.0        444.6622
         1        88        28       449.66208         50000.0       444.66208
         1        88        28       449.66208         50000.0       444.66208
         1        88        28        449.6744         50000.0        444.6744
         1        88        29       449.73676         50000.0       444.73676
         1        88        29       449.66202         50000.0       444.66202
         1        88        29       449.66232         50000.0       444.66232
         1        88        29       449.66223         50000.0       444.66223
         1        88        29       449.73477         50000.0       444.73477
         1        88        30       449.66202         50000.0       444.66202
         1        88        30       449.66208         50000.0       444.66208
         1        88        30       449.66214         50000.0       444.66214
         1        88        30       444.27002         50000.0       439.27002
         1        88        31       444.71262         50000.0       439.71262
         1        88        31       449.66208         50000.0       444.66208
         1        88        31       449.66223         50000.0       444.66223
         1        88         9       440.01526         50000.0       435.01526
         1        88         9        438.2199         50000.0        433.2199
         1        88        22       441.19193         50000.0       436.19193
         1        88        22       441.01053         50000.0       436.01053
         1        88        22       443.65814         50000.0       438.65814
         1        88        23       443.65802         50000.0       438.65802
         1        88        23        443.6581         50000.0        438.6581
         1        88        23       443.65826         50000.0       438.65826
         1        88        23       443.65808         50000.0       438.65808
         1        88        23       443.65817         50000.0       438.65817
         1        88        24       443.65805         50000.0       438.65805
         1        88        24       443.65817         50000.0       438.65817
         1        88        24       443.65802         50000.0       438.65802
         1        88        24       443.65808         50000.0       438.65808
         1        88        25        443.6582         50000.0        438.6582
         1        88        25       443.65823         50000.0       438.65823
         1        88        25       443.65808         50000.0       438.65808
         1        88        25        443.6582         50000.0        438.6582
         1        88        31       449.66223         50000.0       444.66223
         1        88        62       480.92667         50000.0       475.92667
         1        88        62       489.87762         50000.0       484.87762
         1        88       116        589.4071         50000.0        584.4071
         1        88       116        578.7563         50000.0        573.7563
         1        88       107          562.43         50000.0          557.43
         1        88       107       559.59296         50000.0       554.59296
         1        88       107       563.80585         50000.0       558.80585
         1        88       122       589.74585         50000.0       584.74585
         1        88       122       591.81213         50000.0       586.81213
         1        88       122        588.4936         50000.0        583.4936
         1        88       123        599.2551         50000.0        594.2551
         1        88       117       583.41705         50000.0       578.41705
         1        88       116       574.17755         50000.0       569.17755
         1        88       116        585.0353         50000.0        580.0353
         1        88       107       562.59424         50000.0       557.59424
         1        88       107        563.5003         50000.0        558.5003
         1        88         6       440.39368         50000.0       435.39368
         1        88         6        440.4266         50000.0        435.4266
         1        88        19        449.0461         50000.0        444.0461
         1        88        19       448.83853         50000.0       443.83853
         1        88        19       448.85037         50000.0       443.85037
         1        88        19       448.67612         50000.0       443.67612
         1        88        20       449.36374         50000.0       444.36374
         1        88        20       447.83652         50000.0       442.83652
         1        88        20       448.15466         50000.0       443.15466
         1        88        20       446.74823         50000.0       441.74823
         1        88        20        446.7144         50000.0        441.7144
         1        88        21       448.34912         50000.0       443.34912
         1        88        21       442.63425         50000.0       437.63425
         1        88        21        440.2499         50000.0        435.2499
         1        88        21       440.16623         50000.0       435.16623
         1        88        22        440.2207         50000.0        435.2207
         1        88        22        439.9967         50000.0        434.9967
         1        88        22        438.4032         50000.0        433.4032
         1        88        22       438.89987         50000.0       433.89987
         1        88        22       443.67322         50000.0       438.67322