# RIV package for  MODFLOW-2005, generated by Flopy.
      3696         0
      3696         0 # stress period 1
         1       100        62       489.23557         50000.0       488.73557
         1       100        62       512.52625         50000.0       512.02625
         1       100        62       495.88428         50000.0       495.38428
         1       100        62       490.43365         50000.0       489.93365
         1       100        62       489.26047         50000.0       488.76047
         1        99        62       499.96442         50000.0       499.46442
         1        99        62       506.66635         50000.0       506.16635
         1        99        62       489.19144         50000.0       488.69144
         1        99        62        500.1819         50000.0        499.6819
         1        99        62       488.76675         50000.0       488.26675
         1        98        62       501.73163         50000.0       501.23163
         1        98        62       506.38834         50000.0       505.88834
         1        98        62       507.52893         50000.0       507.02893
         1        98        62        542.8023         50000.0        542.3023
         1        98        62        499.9523         50000.0        499.4523
         1        98        62        550.3756         50000.0        549.8756
         1        98        62       489.23566         50000.0       488.73566
         1        97        62       492.35056         50000.0       491.85056
         1        97        62       494.77408         50000.0       494.27408
         1        97        62       490.23495         50000.0       489.73495
         1        97        62       490.02863         50000.0       489.52863
         1        97        61       490.03574         50000.0       489.53574
         1        97        62       490.36722         50000.0       489.86722
         1        96        61       493.27048         50000.0       492.77048
         1        96        61         489.267         50000.0         488.767
         1        96        61        489.4875         50000.0        488.9875
         1        96        61       490.49792         50000.0       489.99792
         1        96         1       440.03275         50000.0       439.53275
         1        96         1        440.0657         50000.0        439.5657
         1        96         1       451.45212         50000.0       450.95212
         1        96        61       513.80774         50000.0       513.30774
         1        96        61       491.47562         50000.0       490.97562
         1        96        61       489.91177         50000.0       489.41177
         1        95         1       440.03284         50000.0       439.53284
         1        95         1       440.03284         50000.0       439.53284
         1        95         1       440.03284         50000.0       439.53284
         1        95         1       440.04474         50000.0       439.54474
         1        95         2       439.49506         50000.0       438.99506
         1        95         2       442.69333         50000.0       442.19333
         1        95        61       489.16486         50000.0       488.66486
         1        95        61       489.66095         50000.0       489.16095
         1        95         2       440.06564         50000.0       439.56564
         1        95         2        439.9917         50000.0        439.4917
         1        95         2       439.89737         50000.0       439.39737
         1        95         3       439.18182         50000.0       438.68182
         1        95         3       433.02856         50000.0       432.52856
         1        95        61       489.48288         50000.0       488.98288
         1        95        61        489.9507         50000.0        489.4507
         1        95        61         490.224         50000.0         489.724
         1        95        62       492.54224         50000.0       492.04224
         1        95         3        439.2201         50000.0        438.7201
         1        95         3       438.91046         50000.0       438.41046
         1        95        62        489.4668         50000.0        488.9668
         1        95         3       440.11588         50000.0       439.61588
         1        95         3        438.9485         50000.0        438.4485
         1        95         3        436.2207         50000.0        435.7207
         1        95        62        489.5711         50000.0        489.0711
         1        95         3       439.65823         50000.0       439.15823
         1        95         4       436.29276         50000.0       435.79276
         1        95        62        489.4917         50000.0        488.9917
         1        94         4       438.89273         50000.0       438.39273
         1        94         4       438.55865         50000.0       438.05865
         1        94         4        440.9331         50000.0        440.4331
         1        94        62       490.09143         50000.0       489.59143
         1        94         4       452.57468         50000.0       452.07468
         1        94         4         441.138         50000.0         440.638
         1        94        61       490.24652         50000.0       489.74652
         1        94        62       489.50403         50000.0       489.00403
         1        94         4       446.95557         50000.0       446.45557
         1        94         4       441.83252         50000.0       441.33252
         1        94        61       489.52426         50000.0       489.02426
         1        94         4        439.2703         50000.0        438.7703
         1        94         5       442.55563         50000.0       442.05563
         1        94         5       443.44083         50000.0       442.94083
         1        94        61       489.66525         50000.0       489.16525
         1        93         5        439.9312         50000.0        439.4312
         1        93         5        441.7952         50000.0        441.2952
         1        93        61        489.6654         50000.0        489.1654
         1        93         5       438.79852         50000.0       438.29852
         1        93         5        439.5363         50000.0        439.0363
         1        93        61       489.66544         50000.0       489.16544
         1        93        62       489.66525         50000.0       489.16525
         1        93         5       453.66385         50000.0       453.16385
         1        93         6       439.40955         50000.0       438.90955
         1        93        62       489.66574         50000.0       489.16574
         1        93        62       489.66528         50000.0       489.16528
         1        93         5       438.57837         50000.0       438.07837
         1        93         6       440.01273         50000.0       439.51273
         1        93        62       489.49832         50000.0       488.99832
         1        93        62        489.6653         50000.0        489.1653
         1        92         5       439.43262         50000.0       438.93262
         1        92        62        494.8498         50000.0        494.3498
         1        92        62        489.6578         50000.0        489.1578
         1        92         5       438.38995         50000.0       437.88995
         1        92        62       489.46448         50000.0       488.96448
         1        92         5        438.3925         50000.0        437.8925
         1        92         5       438.64905         50000.0       438.14905
         1        92        62       489.66495         50000.0       489.16495
         1        92         5        439.0782         50000.0        438.5782
         1        92        62        489.5128         50000.0        489.0128
         1        92        62       489.66547         50000.0       489.16547
         1        92         5       439.33023         50000.0       438.83023
         1        92        62       489.66528         50000.0       489.16528
         1        92        62       489.67136         50000.0       489.17136
         1        91         5       440.16052         50000.0       439.66052
         1        91         6       440.32816         50000.0       439.82816
         1        91        62       489.54324         50000.0       489.04324
         1        91        62       496.95706         50000.0       496.45706
         1        91         5        439.3754         50000.0        438.8754
         1        91         5       440.32797         50000.0       439.82797
         1        91         6        439.5722         50000.0        439.0722
         1        91         6       440.36102         50000.0       439.86102
         1        91         7        440.3609         50000.0        439.8609
         1        91        62       489.51184         50000.0       489.01184
         1        91        62        573.5267         50000.0        573.0267
         1        91         5       439.31155         50000.0       438.81155
         1        91         6       440.36096         50000.0       439.86096
         1        91         7       440.36084         50000.0       439.86084
         1        91         7       440.36084         50000.0       439.86084
         1        91        62         488.445         50000.0         487.945
         1        91         5       440.29443         50000.0       439.79443
         1        91         7       440.36078         50000.0       439.86078
         1        91         7        440.3282         50000.0        439.8282
         1        91         7       440.36093         50000.0       439.86093
         1        91         8       440.36105         50000.0       439.86105
         1        91         8        440.3608         50000.0        439.8608
         1        91         8        435.4392         50000.0        434.9392
         1        91        62        489.6224         50000.0        489.1224
         1        90         5         440.328         50000.0         439.828
         1        90         7       440.31155         50000.0       439.81155
         1        90         7       440.34027         50000.0       439.84027
         1        90         7       440.35254         50000.0       439.85254
         1        90         8       440.26645         50000.0       439.76645
         1        90         8        440.2552         50000.0        439.7552
         1        90         8       440.16406         50000.0       439.66406
         1        90         8       435.28864         50000.0       434.78864
         1        90         9       435.33072         50000.0       434.83072
         1        90        62        490.3791         50000.0        489.8791
         1        90         5       439.97583         50000.0       439.47583
         1        90         8       440.16418         50000.0       439.66418
         1        90         9       447.07996         50000.0       446.57996
         1        90        62       481.22678         50000.0       480.72678
         1        90        62        492.9338         50000.0        492.4338
         1        90       113        606.7539         50000.0        606.2539
         1        90       113        605.8281         50000.0        605.3281
         1        90       113        609.8407         50000.0        609.3407
         1        90       113        615.5405         50000.0        615.0405
         1        90       114        596.7224         50000.0        596.2224
         1        90       118       601.28033         50000.0       600.78033
         1        90       118       583.22485         50000.0       582.72485
         1        90       118        583.9725         50000.0        583.4725
         1        90       119        609.6617         50000.0        609.1617
         1        90         5       439.76562         50000.0       439.26562
         1        90         9       440.39413         50000.0       439.89413
         1        90         9       435.81686         50000.0       435.31686
         1        90        62       479.89328         50000.0       479.39328
         1        90       108       567.69934         50000.0       567.19934
         1        90       108       568.42737         50000.0       567.92737
         1        90       119       604.52893         50000.0       604.02893
         1        90       120       609.38934         50000.0       608.88934
         1        90       120        609.9765         50000.0        609.4765
         1        90       120        615.2556         50000.0        614.7556
         1        90       112        579.3056         50000.0        578.8056
         1        90       113       575.51373         50000.0       575.01373
         1        90       113       570.55286         50000.0       570.05286
         1        90       113       576.13995         50000.0       575.63995
         1        90       113        578.9443         50000.0        578.4443
         1        90       114        572.2898         50000.0        571.7898
         1        90       114        581.2839         50000.0        580.7839
         1        90       114        584.0933         50000.0        583.5933
         1        90       118        625.0675         50000.0        624.5675
         1        90       118        589.7749         50000.0        589.2749
         1        90       119       593.90765         50000.0       593.40765
         1        90         5        439.5976         50000.0        439.0976
         1        90         9       440.15378         50000.0       439.65378
         1        90        62        490.5304         50000.0        490.0304
         1        90       112        575.4518         50000.0        574.9518
         1        90       112         574.718         50000.0         574.218
         1        90       112        578.3292         50000.0        577.8292
         1        90       112        575.8434         50000.0        575.3434
         1        90       108       564.91974         50000.0       564.41974
         1        90       108       564.85693         50000.0       564.35693
         1        90       108       565.43964         50000.0       564.93964
         1        90       119       586.07654         50000.0       585.57654
         1        90       119       605.14905         50000.0       604.64905
         1        90       119        590.8538         50000.0        590.3538
         1        90       120        590.2443         50000.0        589.7443
         1        90       120       622.49603         50000.0       621.99603
         1        90       113        576.2743         50000.0        575.7743
         1        90       114        581.3744         50000.0        580.8744
         1        90       114       580.65356         50000.0       580.15356
         1        90       118        582.1411         50000.0        581.6411
         1        90       119        589.4695         50000.0        588.9695
         1        90       119        587.2004         50000.0        586.7004
         1        90         5       439.89508         50000.0       439.39508
         1        90         9       440.29584         50000.0       439.79584
         1        90         9         435.759         50000.0         435.259
         1        90        62        489.6858         50000.0        489.1858
         1        90       109        570.0175         50000.0        569.5175
         1        90       110        570.0997         50000.0        569.5997
         1        90       111        574.5596         50000.0        574.0596
         1        90       111         576.506         50000.0         576.006
         1        90       111        585.0584         50000.0        584.5584
         1        90       111         584.275         50000.0         583.775
         1        90       109        569.8169         50000.0        569.3169
         1        90       109       570.01117         50000.0       569.51117
         1        90       115       588.55347         50000.0       588.05347
         1        90       112       571.22485         50000.0       570.72485
         1        90       112       570.08435         50000.0       569.58435
         1        90       108        579.9045         50000.0        579.4045
         1        90       108        564.9733         50000.0        564.4733
         1        90       108       564.89124         50000.0       564.39124
         1        90       109        565.6924         50000.0        565.1924
         1        90       120        614.9793         50000.0        614.4793
         1        90       114       578.31683         50000.0       577.81683
         1        90       114       590.40564         50000.0       589.90564
         1        90       115       589.62177         50000.0       589.12177
         1        90       115       590.18536         50000.0       589.68536
         1        90       118        585.4878         50000.0        584.9878
         1        89         5        440.0765         50000.0        439.5765
         1        89         9        440.7157         50000.0        440.2157
         1        89         9       435.32443         50000.0       434.82443
         1        89        62       485.44293         50000.0       484.94293
         1        89       109        569.6954         50000.0        569.1954
         1        89       109       569.98834         50000.0       569.48834
         1        89       110        569.9207         50000.0        569.4207
         1        89       110        569.7268         50000.0        569.2268
         1        89       110        569.7366         50000.0        569.2366
         1        89       110       570.87225         50000.0       570.37225
         1        89       110        570.8171         50000.0        570.3171
         1        89       111        569.7313         50000.0        569.2313
         1        89       111       569.76355         50000.0       569.26355
         1        89       109       599.83563         50000.0       599.33563
         1        89       115       580.73486         50000.0       580.23486
         1        89       115        581.0935         50000.0        580.5935
         1        89       111       569.73083         50000.0       569.23083
         1        89       112        569.7709         50000.0        569.2709
         1        89       107       568.89606         50000.0       568.39606
         1        89       108        567.1796         50000.0        566.6796
         1        89       109       593.43604         50000.0       592.93604
         1        89       109        605.6874         50000.0        605.1874
         1        89       120       590.57043         50000.0       590.07043
         1        89       115       578.31836         50000.0       577.81836
         1        89       115       580.16925         50000.0       579.66925
         1        89       117       580.49664         50000.0       579.99664
         1        89       118        581.7065         50000.0        581.2065
         1        89         5       440.10092         50000.0       439.60092
         1        89         9       436.90952         50000.0       436.40952
         1        89        62        482.4077         50000.0        481.9077
         1        89       121       593.56244         50000.0       593.06244
         1        89       121        593.8584         50000.0        593.3584
         1        89       121        594.7427         50000.0        594.2427
         1        89       116        583.6694         50000.0        583.1694
         1        89       110        569.7278         50000.0        569.2278
         1        89       110       569.75354         50000.0       569.25354
         1        89       115        579.4796         50000.0        578.9796
         1        89       116        580.7885         50000.0        580.2885
         1        89       107       564.34644         50000.0       563.84644
         1        89       108        565.8925         50000.0        565.3925
         1        89       120        590.0719         50000.0        589.5719
         1        89       117        580.1159         50000.0        579.6159
         1        89         5        440.1311         50000.0        439.6311
         1        89         5       440.37903         50000.0       439.87903
         1        89         9       445.88788         50000.0       445.38788
         1        89         9       435.25546         50000.0       434.75546
         1        89        62       479.59305         50000.0       479.09305
         1        89        62       485.89117         50000.0       485.39117
         1        89       117         584.776         50000.0         584.276
         1        89       117       583.04846         50000.0       582.54846
         1        89       117        580.3126         50000.0        579.8126
         1        89       122       594.59094         50000.0       594.09094
         1        89       122       597.30566         50000.0       596.80566
         1        89       121       591.56915         50000.0       591.06915
         1        89       121        593.9541         50000.0        593.4541
         1        89       121       594.74493         50000.0       594.24493
         1        89       121        594.7686         50000.0        594.2686
         1        89       116       584.78076         50000.0       584.28076
         1        89       108        562.4098         50000.0        561.9098
         1        89       120        589.6085         50000.0        589.1085
         1        89       120        592.3229         50000.0        591.8229
         1        89       117        581.0783         50000.0        580.5783
         1        89         5        440.4266         50000.0        439.9266
         1        89         9       440.17282         50000.0       439.67282
         1        89         9       434.78555         50000.0       434.28555
         1        89        62       489.86298         50000.0       489.36298
         1        89        62        480.2271         50000.0        479.7271
         1        89       117        580.0251         50000.0        579.5251
         1        89       117        587.6902         50000.0        587.1902
         1        89       122       596.36206         50000.0       595.86206
         1        89       122        589.6665         50000.0        589.1665
         1        89       116       585.41614         50000.0       584.91614
         1        89       107       560.96906         50000.0       560.46906
         1        89       108        564.7241         50000.0        564.2241
         1        89       122        596.4231         50000.0        595.9231
         1        88         5        440.2936         50000.0        439.7936
         1        88         6        440.4264         50000.0        439.9264
         1        88        25       444.96295         50000.0       444.46295
         1        88        26       446.59723         50000.0       446.09723
         1        88        26         447.997         50000.0         447.497
         1        88        26       448.78763         50000.0       448.28763
         1        88        26        449.4747         50000.0        448.9747
         1        88        26       449.66202         50000.0       449.16202
         1        88        27       449.69482         50000.0       449.19482
         1        88        27       449.66833         50000.0       449.16833
         1        88        27       449.66208         50000.0       449.16208
         1        88        27        449.6622         50000.0        449.1622
         1        88        28       449.66205         50000.0       449.16205
         1        88        28        449.6622         50000.0        449.1622
         1        88        28       449.66208         50000.0       449.16208
         1        88        28       449.66208         50000.0       449.16208
         1        88        28        449.6744         50000.0        449.1744
         1        88        29       449.73676         50000.0       449.23676
         1        88        29       449.66202         50000.0       449.16202
         1        88        29       449.66232         50000.0       449.16232
         1        88        29       449.66223         50000.0       449.16223
         1        88        29       449.73477         50000.0       449.23477
         1        88        30       449.66202         50000.0       449.16202
         1        88        30       449.66208         50000.0       449.16208
         1        88        30       449.66214         50000.0       449.16214
         1        88        30       444.27002         50000.0       443.77002
         1        88        31       444.71262         50000.0       444.21262
         1        88        31       449.66208         50000.0       449.16208
         1        88        31       449.66223         50000.0       449.16223
         1        88         9       440.01526         50000.0       439.51526
         1        88         9        438.2199         50000.0        437.7199
         1        88        22       441.19193         50000.0       440.69193
         1        88        22       441.01053         50000.0       440.51053
         1        88        22       443.65814         50000.0       443.15814
         1        88        23       443.65802         50000.0       443.15802
         1        88        23        443.6581         50000.0        443.1581
         1        88        23       443.65826         50000.0       443.15826
         1        88        23       443.65808         50000.0       443.15808
         1        88        23       443.65817         50000.0       443.15817
         1        88        24       443.65805         50000.0       443.15805
         1        88        24       443.65817         50000.0       443.15817
         1        88        24       443.65802         50000.0       443.15802
         1        88        24       443.65808         50000.0       443.15808
         1        88        25        443.6582         50000.0        443.1582
         1        88        25       443.65823         50000.0       443.15823
         1        88        25       443.65808         50000.0       443.15808
         1        88        25        443.6582         50000.0        443.1582
         1        88        31       449.66223         50000.0       449.16223
         1        88        62       480.92667         50000.0       480.42667
         1        88        62       489.87762         50000.0       489.37762
         1        88       116        589.4071         50000.0        588.9071
         1        88       116        578.7563         50000.0        578.2563
         1        88       107          562.43         50000.0          561.93
         1        88       107       559.59296         50000.0       559.09296
         1        88       107       563.80585         50000.0       563.30585
         1        88       122       589.74585         50000.0       589.24585
         1        88       122       591.81213         50000.0       591.31213
         1        88       122        588.4936         50000.0        587.9936
         1        88       123        599.2551         50000.0        598.7551
         1        88       117       583.41705         50000.0       582.91705
         1        88       116       574.17755         50000.0       573.67755
         1        88       116        585.0353         50000.0        584.5353
         1        88       107       562.59424         50000.0       562.09424
         1        88       107        563.5003         50000.0        563.0003
         1        88         6       440.39368         50000.0       439.89368
         1        88         6        440.4266         50000.0        439.9266
         1        88        19        449.0461         50000.0        448.5461
         1        88        19       448.83853         50000.0       448.33853
         1        88        19       448.85037         50000.0       448.35037
         1        88        19       448.67612         50000.0       448.17612
         1        88        20       449.36374         50000.0       448.86374
         1        88        20       447.83652         50000.0       447.33652
         1        88        20       448.15466         50000.0       447.65466
         1        88        20       446.74823         50000.0       446.24823
         1        88        20        446.7144         50000.0        446.2144
         1        88        21       448.34912         50000.0       447.84912
         1        88        21       442.63425         50000.0       442.13425
         1        88        21        440.2499         50000.0        439.7499
         1        88        21       440.16623         50000.0       439.66623
         1        88        22        440.2207         50000.0        439.7207
         1        88        22        439.9967         50000.0        439.4967
         1        88        22        438.4032         50000.0        437.9032
         1        88        22       438.89987         50000.0       438.39987
         1        88        22       443.67322         50000.0       443.17322