# DIS package for  MODFLOW-2005, generated by Flopy.
         2        50        75         1         4         1
  0  0
CONSTANT    5.851307E+03                           #delr                          
CONSTANT    5.455200E+03                           #delc                          
INTERNAL               1  (75E15.6) -1 #model_top                     
   6.734097E+02   6.659269E+02   6.602499E+02   6.520698E+02   6.746075E+02   6.777824E+02   6.762543E+02   6.590571E+02   6.367809E+02   5.277722E+02   5.333423E+02   5.617399E+02   5.566819E+02   5.900750E+02   6.112701E+02   6.607343E+02   6.876438E+02   6.081108E+02   6.058031E+02   6.728909E+02   6.291047E+02   7.098190E+02   7.338826E+02   6.907150E+02   7.111038E+02   6.861912E+02   7.242284E+02   6.980710E+02   6.929502E+02   7.041611E+02   6.655029E+02   7.202488E+02   6.808406E+02   6.830939E+02   5.952040E+02   6.721094E+02   6.714559E+02   5.853199E+02   5.766510E+02   5.706311E+02   6.379246E+02   6.217454E+02   6.089702E+02   6.621416E+02   4.450065E+02   4.498904E+02   7.085190E+02   7.453929E+02   7.513394E+02   8.003777E+02   7.651183E+02   7.860456E+02   7.791891E+02   7.600639E+02   7.525293E+02   7.507216E+02   7.575665E+02   7.367217E+02   7.580715E+02   7.706545E+02   7.602467E+02   7.506431E+02   7.495447E+02   7.391336E+02   6.607576E+02   7.315607E+02   7.393403E+02   7.390259E+02   7.397693E+02   7.259475E+02   7.251163E+02   7.563700E+02   7.551721E+02   7.400159E+02   7.383588E+02
   6.493209E+02   6.650789E+02   6.102608E+02   6.324177E+02   6.356977E+02   6.430250E+02   6.480103E+02   5.420206E+02   5.400428E+02   5.197703E+02   5.380634E+02   5.960281E+02   6.303372E+02   6.342008E+02   6.445745E+02   6.497728E+02   6.932529E+02   7.047087E+02   7.229396E+02   7.124147E+02   7.044454E+02   7.091149E+02   7.395146E+02   7.307076E+02   7.561783E+02   7.016322E+02   7.502317E+02   7.221854E+02   7.397397E+02   7.230247E+02   7.006901E+02   7.368233E+02   7.388188E+02   5.954119E+02   6.750384E+02   7.001782E+02   7.096943E+02   6.496855E+02   6.145701E+02   6.084199E+02   5.879897E+02   5.457414E+02   6.241051E+02   4.449411E+02   4.449410E+02   4.634918E+02   6.883354E+02   7.007264E+02   7.889930E+02   8.042276E+02   7.745999E+02   7.257108E+02   7.453013E+02   7.626583E+02   7.633127E+02   7.579727E+02   7.488370E+02   7.242700E+02   7.825228E+02   7.807889E+02   7.597242E+02   7.394355E+02   7.109026E+02   7.434344E+02   7.110779E+02   7.408732E+02   7.439659E+02   7.497579E+02   7.470407E+02   7.248541E+02   7.204102E+02   7.204460E+02   7.296124E+02   7.474352E+02   7.550750E+02
   6.055450E+02   6.449219E+02   6.263960E+02   5.661672E+02   5.637059E+02   5.541613E+02   6.148409E+02   5.801030E+02   6.375912E+02   5.208797E+02   5.196895E+02   5.800864E+02   5.597151E+02   6.304036E+02   6.531725E+02   6.604135E+02   6.823445E+02   7.108200E+02   7.030978E+02   7.100159E+02   7.277012E+02   7.322637E+02   7.296089E+02   7.447451E+02   7.652405E+02   7.568995E+02   7.686674E+02   7.448422E+02   7.508129E+02   7.344733E+02   7.211761E+02   7.403629E+02   7.233195E+02   7.157078E+02   6.817601E+02   7.202483E+02   7.082078E+02   6.972993E+02   6.900891E+02   6.486078E+02   4.994878E+02   5.997032E+02   4.448755E+02   4.449074E+02   4.449409E+02   6.945599E+02   5.743217E+02   7.147496E+02   7.718371E+02   7.612076E+02   7.049343E+02   7.617755E+02   7.778026E+02   7.773917E+02   7.727999E+02   7.585024E+02   7.469609E+02   7.490234E+02   7.119478E+02   7.979363E+02   7.699568E+02   7.506684E+02   7.266205E+02   7.026140E+02   7.277231E+02   7.504113E+02   7.413782E+02   7.397767E+02   7.490995E+02   7.302944E+02   7.237634E+02   7.147264E+02   7.258785E+02   6.737678E+02   7.505308E+02
   6.485585E+02   6.030074E+02   6.121777E+02   5.997393E+02   6.332192E+02   6.349777E+02   5.521987E+02   6.599703E+02   6.315689E+02   5.097632E+02   5.305274E+02   6.499777E+02   6.333662E+02   6.510818E+02   6.706210E+02   6.587313E+02   6.180156E+02   6.551172E+02   7.209540E+02   7.354371E+02   7.451974E+02   7.663288E+02   7.387759E+02   7.492438E+02   7.702112E+02   7.821063E+02   7.542669E+02   7.409080E+02   7.189368E+02   6.824591E+02   7.028663E+02   7.196970E+02   7.150623E+02   7.204706E+02   7.003456E+02   6.833292E+02   6.813872E+02   6.294433E+02   6.529997E+02   6.160399E+02   5.145865E+02   4.447770E+02   4.533660E+02   4.609454E+02   6.475521E+02   5.379415E+02   6.076342E+02   6.118420E+02   6.882694E+02   7.659852E+02   7.988593E+02   7.900226E+02   7.988338E+02   7.797493E+02   7.756582E+02   7.596159E+02   7.440986E+02   7.397500E+02   7.142314E+02   7.562275E+02   7.702708E+02   7.360470E+02   6.593286E+02   7.033360E+02   7.329100E+02   7.336398E+02   6.496157E+02   6.550658E+02   7.408713E+02   6.624717E+02   6.608160E+02   6.852373E+02   6.810117E+02   7.106161E+02   7.096049E+02
   6.914685E+02   6.378634E+02   6.415979E+02   6.385384E+02   6.396075E+02   6.393256E+02   6.487401E+02   6.550612E+02   6.248670E+02   5.101865E+02   6.021191E+02   6.234953E+02   5.651653E+02   5.956571E+02   7.072039E+02   7.055953E+02   7.339703E+02   6.712974E+02   7.125854E+02   7.411273E+02   7.622979E+02   7.702507E+02   7.631287E+02   7.503151E+02   7.444783E+02   7.503898E+02   7.215228E+02   7.092442E+02   7.120496E+02   6.875463E+02   6.273831E+02   7.009033E+02   7.027384E+02   6.920503E+02   6.575010E+02   5.863577E+02   6.523937E+02   5.515775E+02   6.477830E+02   6.224892E+02   5.028331E+02   4.718154E+02   4.397719E+02   4.920341E+02   6.252515E+02   5.884441E+02   5.395748E+02   6.926013E+02   7.417186E+02   7.971439E+02   8.218131E+02   8.169529E+02   7.797866E+02   7.718924E+02   7.716473E+02   7.586796E+02   7.400458E+02   7.466379E+02   6.760334E+02   6.551036E+02   6.368184E+02   6.344493E+02   6.241424E+02   6.492475E+02   6.622219E+02   7.004787E+02   6.993291E+02   7.185422E+02   7.316979E+02   7.305316E+02   7.073931E+02   7.152133E+02   7.002978E+02   7.364164E+02   7.499080E+02
   6.756700E+02   7.072739E+02   6.475715E+02   6.359661E+02   6.469783E+02   6.658630E+02   6.303503E+02   6.277955E+02   5.081497E+02   5.512573E+02   5.753267E+02   5.799503E+02   6.723151E+02   6.453356E+02   7.211882E+02   6.790889E+02   7.376749E+02   7.241812E+02   7.492286E+02   7.454813E+02   7.713220E+02   7.616122E+02   7.344330E+02   6.582930E+02   7.224767E+02   7.205252E+02   7.205793E+02   7.007932E+02   6.668729E+02   6.782364E+02   6.694398E+02   6.600424E+02   6.653700E+02   6.416879E+02   6.535758E+02   6.177036E+02   6.316191E+02   6.171924E+02   6.363442E+02   6.442660E+02   4.496546E+02   4.743929E+02   6.819244E+02   5.430243E+02   7.017641E+02   6.279502E+02   6.927838E+02   6.837363E+02   6.957729E+02   7.222918E+02   7.940923E+02   8.433772E+02   7.864890E+02   7.523348E+02   7.785627E+02   7.591768E+02   7.473535E+02   7.446774E+02   7.367107E+02   6.418163E+02   6.742036E+02   7.579120E+02   6.942565E+02   7.319741E+02   7.106133E+02   7.596043E+02   7.473608E+02   7.257106E+02   7.416471E+02   7.504043E+02   7.514424E+02   7.393566E+02   7.397180E+02   7.339375E+02   7.198788E+02
   6.909447E+02   6.901099E+02   6.397847E+02   6.429038E+02   6.303371E+02   5.745955E+02   6.284691E+02   5.097442E+02   5.094490E+02   5.249343E+02   6.500030E+02   6.105756E+02   6.569203E+02   7.091630E+02   7.230287E+02   7.347885E+02   7.436057E+02   7.492723E+02   7.467927E+02   7.577111E+02   7.674960E+02   7.446647E+02   7.360864E+02   7.074654E+02   6.542710E+02   7.009432E+02   6.786635E+02   6.357120E+02   5.811456E+02   6.023546E+02   5.638010E+02   6.243560E+02   6.309585E+02   6.288123E+02   6.396532E+02   6.266143E+02   6.183892E+02   6.286193E+02   6.257651E+02   6.371215E+02   4.447576E+02   4.989493E+02   6.597662E+02   7.388419E+02   7.325078E+02   7.236202E+02   7.219848E+02   7.200299E+02   7.098791E+02   7.286208E+02   7.474274E+02   8.219875E+02   7.992488E+02   7.192731E+02   7.182228E+02   7.597272E+02   7.398890E+02   7.495533E+02   6.193539E+02   6.543164E+02   6.807878E+02   7.667617E+02   7.666999E+02   7.558271E+02   7.349314E+02   7.018228E+02   7.708240E+02   7.799077E+02   7.429554E+02   7.198376E+02   7.581273E+02   7.602468E+02   7.496605E+02   7.481406E+02   7.462597E+02
   6.712797E+02   6.718949E+02   6.673809E+02   6.343552E+02   6.596833E+02   6.286756E+02   5.093390E+02   5.957855E+02   5.388984E+02   6.096125E+02   6.499258E+02   6.739097E+02   6.955065E+02   6.696699E+02   7.062881E+02   7.080566E+02   7.164288E+02   7.394172E+02   7.400683E+02   7.487977E+02   7.378679E+02   7.114073E+02   6.955757E+02   6.810624E+02   6.611641E+02   6.602091E+02   6.519371E+02   6.711021E+02   5.976616E+02   5.916086E+02   6.199348E+02   5.999745E+02   5.716810E+02   5.970406E+02   6.196507E+02   5.982151E+02   5.922201E+02   6.050244E+02   5.751339E+02   4.447530E+02   4.462082E+02   5.058790E+02   6.354070E+02   6.574611E+02   7.274001E+02   7.687871E+02   7.393539E+02   7.364553E+02   7.153212E+02   7.077433E+02   7.219128E+02   7.891041E+02   8.001962E+02   7.379711E+02   7.298695E+02   7.391361E+02   7.294427E+02   6.196434E+02   6.364587E+02   6.981326E+02   7.158535E+02   7.421061E+02   7.598198E+02   8.158044E+02   8.311044E+02   8.113534E+02   7.925524E+02   7.781695E+02   7.822673E+02   7.282275E+02   7.549637E+02   7.640379E+02   7.587019E+02   7.563768E+02   7.492449E+02
   6.436888E+02   6.575573E+02   6.424394E+02   6.501351E+02   6.425404E+02   5.922919E+02   5.013828E+02   5.415475E+02   5.484958E+02   6.423251E+02   6.504772E+02   6.517277E+02   6.411888E+02   6.394785E+02   6.269956E+02   6.997692E+02   7.001111E+02   7.078146E+02   6.997341E+02   7.066788E+02   6.958154E+02   6.997496E+02   6.894685E+02   6.795261E+02   6.721148E+02   5.899899E+02   5.819773E+02   6.332914E+02   5.776486E+02   5.112213E+02   5.346586E+02   5.572724E+02   6.113676E+02   6.205029E+02   5.944845E+02   5.485303E+02   5.521300E+02   6.004544E+02   6.129022E+02   4.445077E+02   4.445079E+02   4.822028E+02   6.319016E+02   6.311689E+02   6.714550E+02   7.814450E+02   7.245563E+02   7.147895E+02   7.078806E+02   7.001903E+02   7.051591E+02   7.593231E+02   7.369026E+02   6.956895E+02   7.299631E+02   6.804471E+02   7.058724E+02   6.493473E+02   6.416106E+02   7.412649E+02   6.931160E+02   7.327339E+02   7.503807E+02   7.652297E+02   8.300231E+02   8.497034E+02   7.939783E+02   7.957911E+02   7.875024E+02   7.802386E+02   7.467863E+02   7.710407E+02   7.769617E+02   7.713235E+02   7.598751E+02
   6.486529E+02   6.504792E+02   6.117437E+02   6.428340E+02   6.386099E+02   6.376265E+02   6.297891E+02   5.006743E+02   4.991030E+02   5.060499E+02   6.246827E+02   5.621004E+02   6.505157E+02   6.631249E+02   6.647590E+02   6.704811E+02   6.666833E+02   6.770340E+02   6.848376E+02   6.958365E+02   6.835583E+02   6.748967E+02   6.731700E+02   6.483467E+02   6.440171E+02   6.130570E+02   6.221310E+02   6.027643E+02   5.973115E+02   6.107836E+02   6.004724E+02   6.064634E+02   6.197279E+02   6.199117E+02   5.386050E+02   6.001427E+02   5.944591E+02   5.048560E+02   4.377935E+02   4.443820E+02   4.635599E+02   5.433995E+02   5.873184E+02   6.431014E+02   7.393040E+02   7.679096E+02   7.121638E+02   6.932186E+02   6.810749E+02   6.797682E+02   6.896758E+02   7.372161E+02   6.866005E+02   7.469114E+02   7.389698E+02   6.325029E+02   6.099014E+02   6.070708E+02   6.910901E+02   6.916945E+02   7.342620E+02   7.716758E+02   7.555142E+02   7.396546E+02   7.567742E+02   8.075960E+02   8.600196E+02   8.344965E+02   8.111906E+02   8.001247E+02   7.989269E+02   7.769606E+02   7.868387E+02   7.894903E+02   7.752043E+02
   6.296791E+02   6.265737E+02   5.526893E+02   6.021712E+02   6.196242E+02   6.239868E+02   6.289689E+02   6.082795E+02   5.411963E+02   6.157576E+02   6.128455E+02   5.473701E+02   5.793027E+02   6.545435E+02   6.478674E+02   6.622615E+02   6.662181E+02   6.779763E+02   6.640568E+02   6.709635E+02   6.417909E+02   6.477835E+02   6.396662E+02   6.340165E+02   5.783236E+02   6.193823E+02   5.362865E+02   6.099374E+02   5.578076E+02   5.714073E+02   5.898157E+02   6.027239E+02   6.140364E+02   6.062117E+02   5.347853E+02   5.400563E+02   4.439828E+02   4.439449E+02   4.598532E+02   4.466517E+02   4.927914E+02   5.823026E+02   5.995038E+02   6.176583E+02   7.423690E+02   7.584960E+02   6.994174E+02   6.844011E+02   6.769640E+02   6.758739E+02   6.796126E+02   6.520429E+02   6.916282E+02   6.674417E+02   5.928260E+02   6.508895E+02   7.386702E+02   6.461393E+02   6.911273E+02   7.762510E+02   7.698594E+02   7.806858E+02   7.797999E+02   7.899018E+02   7.802635E+02   8.005406E+02   8.605884E+02   8.655667E+02   8.465513E+02   8.135218E+02   8.170685E+02   7.790034E+02   7.788294E+02   7.896947E+02   7.891015E+02
   6.342194E+02   6.300842E+02   5.734325E+02   6.207716E+02   5.287020E+02   6.160435E+02   5.638489E+02   6.041649E+02   4.871138E+02   6.211780E+02   5.572021E+02   6.280362E+02   6.253848E+02   6.516786E+02   6.962157E+02   6.667207E+02   6.154291E+02   6.637792E+02   6.646558E+02   6.722654E+02   6.696093E+02   6.480051E+02   6.497353E+02   6.411441E+02   6.223463E+02   6.113216E+02   6.034479E+02   4.789129E+02   5.822439E+02   5.994682E+02   6.027427E+02   5.996630E+02   4.445417E+02   4.385157E+02   4.340515E+02   4.485553E+02   4.456059E+02   4.442159E+02   4.442455E+02   4.583061E+02   5.397175E+02   5.697759E+02   6.292890E+02   6.169779E+02   7.118320E+02   7.627434E+02   6.636152E+02   6.714037E+02   6.574810E+02   6.661306E+02   6.193524E+02   6.714224E+02   5.832936E+02   5.927448E+02   6.111268E+02   6.318676E+02   7.551492E+02   7.466448E+02   7.207457E+02   7.732040E+02   8.006108E+02   8.009476E+02   7.897632E+02   7.784254E+02   7.983123E+02   8.018862E+02   8.012513E+02   8.303119E+02   8.647783E+02   8.734700E+02   8.448784E+02   8.414394E+02   8.078548E+02   7.893956E+02   7.914559E+02
   6.343907E+02   6.344913E+02   6.297510E+02   6.298962E+02   6.234270E+02   6.119050E+02   6.111147E+02   5.016032E+02   4.801597E+02   5.938484E+02   5.190277E+02   6.226888E+02   6.241630E+02   6.450798E+02   6.514094E+02   6.528819E+02   6.539169E+02   6.786743E+02   6.928422E+02   6.924774E+02   6.536935E+02   6.504332E+02   6.497195E+02   6.075620E+02   6.182012E+02   6.124918E+02   6.046689E+02   4.917126E+02   5.599381E+02   6.035929E+02   4.371409E+02   4.342199E+02   4.389189E+02   4.378024E+02   4.351082E+02   4.460399E+02   4.486418E+02   4.486089E+02   4.615523E+02   4.959194E+02   5.194691E+02   5.919919E+02   6.243906E+02   6.684396E+02   6.669639E+02   7.213089E+02   6.288759E+02   6.495115E+02   6.610531E+02   6.591749E+02   6.023652E+02   6.572939E+02   5.712846E+02   6.022885E+02   7.324123E+02   7.578934E+02   7.898147E+02   7.724235E+02   8.052312E+02   8.425920E+02   8.365503E+02   7.798418E+02   7.771159E+02   8.084053E+02   8.199901E+02   8.142233E+02   7.899774E+02   7.923168E+02   8.038819E+02   8.475049E+02   8.511311E+02   8.687947E+02   8.232236E+02   8.184626E+02   8.047570E+02
   6.327421E+02   6.323561E+02   6.233820E+02   5.713358E+02   6.214131E+02   5.999819E+02   6.120098E+02   5.740106E+02   4.904036E+02   4.901069E+02   5.948676E+02   5.885831E+02   5.360969E+02   5.789313E+02   6.094675E+02   6.568419E+02   6.436429E+02   6.822006E+02   6.797209E+02   6.765361E+02   6.389955E+02   6.396577E+02   6.415206E+02   6.113533E+02   6.090205E+02   6.120541E+02   5.930203E+02   4.486250E+02   6.013663E+02   4.361652E+02   4.397452E+02   4.325754E+02   4.353416E+02   4.366285E+02   4.779514E+02   4.497527E+02   4.495547E+02   4.579232E+02   5.151528E+02   4.703936E+02   4.946716E+02   6.310308E+02   5.960303E+02   6.308423E+02   6.774196E+02   6.645355E+02   6.287977E+02   6.505720E+02   6.696348E+02   6.655334E+02   6.623770E+02   5.822475E+02   5.746168E+02   6.266461E+02   6.460449E+02   7.377949E+02   7.672599E+02   7.172154E+02   7.652167E+02   7.779228E+02   7.432787E+02   7.821245E+02   8.089119E+02   8.472488E+02   8.492139E+02   8.016331E+02   7.880718E+02   7.880377E+02   7.966920E+02   7.984863E+02   8.284839E+02   8.225751E+02   8.209794E+02   8.210635E+02   8.211505E+02
   6.497466E+02   6.868486E+02   6.306830E+02   6.357017E+02   6.408045E+02   6.542472E+02   4.959946E+02   4.898474E+02   6.049437E+02   5.450568E+02   6.255826E+02   6.386827E+02   6.513886E+02   6.528752E+02   6.664255E+02   6.696531E+02   6.677292E+02   6.773734E+02   6.600537E+02   6.697914E+02   6.505079E+02   6.208180E+02   6.167747E+02   6.309865E+02   5.947248E+02   6.050497E+02   5.143337E+02   4.659005E+02   4.336068E+02   4.317307E+02   4.316245E+02   4.339334E+02   4.316315E+02   4.843509E+02   4.880284E+02   4.528720E+02   4.497322E+02   5.003611E+02   5.397481E+02   5.206982E+02   4.933306E+02   5.931999E+02   6.202366E+02   6.706108E+02   6.793607E+02   6.295765E+02   6.373814E+02   6.469564E+02   6.597047E+02   5.610714E+02   5.642750E+02   5.698469E+02   5.748079E+02   6.564606E+02   6.642319E+02   7.158132E+02   6.851116E+02   6.902463E+02   7.152126E+02   7.295312E+02   7.332897E+02   7.409025E+02   7.691389E+02   8.005126E+02   8.681714E+02   8.095692E+02   7.506849E+02   8.098776E+02   8.001919E+02   8.024440E+02   7.876903E+02   7.883331E+02   8.188749E+02   8.218091E+02   8.419017E+02
   6.789603E+02   6.383594E+02   6.672264E+02   6.598828E+02   5.596147E+02   6.155433E+02   5.553145E+02   5.568041E+02   5.714708E+02   6.298063E+02   6.414902E+02   6.450263E+02   6.610905E+02   6.740860E+02   6.824324E+02   6.167031E+02   6.562764E+02   6.736373E+02   6.432086E+02   6.419204E+02   5.705564E+02   6.205010E+02   6.019791E+02   5.883511E+02   5.896835E+02   5.881837E+02   4.679629E+02   4.453477E+02   4.344615E+02   4.350613E+02   4.339893E+02   4.328570E+02   4.995819E+02   4.964480E+02   5.176343E+02   4.539826E+02   4.558859E+02   5.194643E+02   5.181542E+02   5.155112E+02   4.945726E+02   5.731499E+02   5.514531E+02   6.427994E+02   6.545270E+02   5.830197E+02   6.219232E+02   6.463667E+02   6.517983E+02   5.494048E+02   5.527592E+02   6.509807E+02   6.410134E+02   6.352241E+02   6.598159E+02   6.664778E+02   6.776080E+02   6.847736E+02   6.916030E+02   6.990939E+02   7.230950E+02   7.439100E+02   7.396281E+02   7.332617E+02   7.408463E+02   7.601113E+02   7.795810E+02   8.107949E+02   8.098724E+02   7.575665E+02   7.549146E+02   7.776586E+02   7.957867E+02   8.231309E+02   8.318538E+02
   6.799711E+02   6.784171E+02   6.628872E+02   6.601292E+02   6.156208E+02   5.393804E+02   5.999607E+02   5.901860E+02   6.100059E+02   6.435978E+02   6.500437E+02   6.546544E+02   6.709196E+02   6.467199E+02   6.657313E+02   6.584185E+02   6.085535E+02   6.389979E+02   5.673022E+02   6.133294E+02   6.294566E+02   6.243832E+02   6.237199E+02   5.307164E+02   5.647100E+02   5.837968E+02   4.457448E+02   4.457777E+02   4.332195E+02   4.387479E+02   4.327234E+02   5.008137E+02   5.080685E+02   5.009217E+02   4.845867E+02   4.628668E+02   4.610082E+02   5.088123E+02   5.197009E+02   5.173787E+02   5.039877E+02   5.445125E+02   5.916547E+02   6.645126E+02   6.039000E+02   6.375453E+02   6.154000E+02   6.252816E+02   6.371733E+02   5.516513E+02   5.479249E+02   6.401569E+02   6.379610E+02   6.500325E+02   6.566726E+02   6.386714E+02   6.668898E+02   6.711387E+02   6.754898E+02   6.901928E+02   7.007745E+02   7.017955E+02   7.006241E+02   7.340589E+02   7.276810E+02   7.459549E+02   8.023621E+02   7.939727E+02   7.941287E+02   7.475399E+02   7.806140E+02   8.241071E+02   8.317902E+02   8.401715E+02   8.687536E+02
   6.659532E+02   6.732664E+02   6.498805E+02   6.184915E+02   5.956603E+02   4.896556E+02   5.184168E+02   6.333560E+02   5.835447E+02   6.498693E+02   6.536442E+02   6.510848E+02   6.497622E+02   6.533751E+02   6.417147E+02   6.583871E+02   5.911167E+02   5.625488E+02   6.199847E+02   6.204528E+02   6.116365E+02   6.029457E+02   6.145195E+02   5.768104E+02   5.774460E+02   4.581249E+02   4.517507E+02   4.437671E+02   4.328800E+02   4.316536E+02   5.203751E+02   5.099552E+02   5.176443E+02   5.176925E+02   4.863255E+02   4.603421E+02   4.690462E+02   5.184564E+02   5.063431E+02   5.016821E+02   4.995849E+02   4.996968E+02   5.007072E+02   5.427134E+02   6.484978E+02   5.814172E+02   5.693744E+02   6.219935E+02   5.399491E+02   5.503745E+02   6.153356E+02   6.349636E+02   6.105334E+02   6.365175E+02   6.448418E+02   6.582206E+02   6.567664E+02   6.601074E+02   6.669894E+02   6.880610E+02   6.894351E+02   7.032092E+02   6.856896E+02   6.987191E+02   7.098083E+02   7.065549E+02   7.436591E+02   7.922637E+02   7.811069E+02   7.691146E+02   8.017945E+02   8.344027E+02   8.478240E+02   8.299151E+02   8.440003E+02
   6.718730E+02   6.255500E+02   6.224957E+02   5.542766E+02   6.346309E+02   6.238816E+02   4.695405E+02   5.206588E+02   6.389326E+02   6.411921E+02   6.242732E+02   6.446772E+02   5.709760E+02   6.250833E+02   6.054847E+02   4.986201E+02   5.622030E+02   6.101851E+02   6.074497E+02   5.782916E+02   5.947759E+02   5.723563E+02   5.813557E+02   5.755919E+02   5.830738E+02   4.455816E+02   4.461451E+02   4.462809E+02   4.376411E+02   5.092242E+02   5.238623E+02   5.190761E+02   5.319558E+02   5.046223E+02   5.035076E+02   4.681874E+02   4.699676E+02   4.737244E+02   4.761953E+02   4.890601E+02   4.921552E+02   4.853130E+02   5.110711E+02   5.242141E+02   5.126798E+02   5.217878E+02   5.248254E+02   5.297585E+02   5.396971E+02   5.734415E+02   5.901065E+02   6.030955E+02   6.296473E+02   6.378408E+02   6.408212E+02   6.450413E+02   6.443607E+02   6.523053E+02   6.641533E+02   6.772504E+02   6.706033E+02   6.987025E+02   6.915661E+02   6.991801E+02   7.002152E+02   6.991493E+02   7.265206E+02   7.394630E+02   7.302604E+02   7.950128E+02   8.685803E+02   8.681749E+02   8.405727E+02   8.352098E+02   8.611031E+02
   6.704992E+02   6.639479E+02   6.131854E+02   6.306706E+02   6.394902E+02   6.331817E+02   6.405286E+02   5.210498E+02   6.473522E+02   6.429230E+02   6.270119E+02   6.230236E+02   6.065531E+02   6.162144E+02   4.978936E+02   6.004572E+02   6.075037E+02   5.860208E+02   5.842735E+02   5.718211E+02   5.099812E+02   5.602343E+02   5.725328E+02   5.631126E+02   5.512015E+02   4.453316E+02   4.463086E+02   4.451540E+02   5.096232E+02   5.169514E+02   5.129139E+02   5.112336E+02   5.083059E+02   4.984922E+02   4.646246E+02   4.696709E+02   4.741776E+02   4.765739E+02   4.843039E+02   4.877920E+02   4.943095E+02   5.432563E+02   5.493983E+02   5.136962E+02   5.684998E+02   6.434966E+02   5.325492E+02   5.342178E+02   5.745039E+02   6.194446E+02   6.347126E+02   6.312531E+02   6.399692E+02   6.451539E+02   6.348066E+02   6.318331E+02   6.473893E+02   6.428549E+02   6.529951E+02   6.635128E+02   6.797506E+02   6.700179E+02   6.797219E+02   6.850337E+02   6.896474E+02   7.011904E+02   7.076770E+02   7.125178E+02   7.288461E+02   7.684021E+02   7.780828E+02   8.613505E+02   7.918251E+02   8.534136E+02   8.695312E+02
   6.565927E+02   6.558860E+02   6.498153E+02   6.213046E+02   6.428866E+02   6.777528E+02   5.970017E+02   4.743560E+02   5.470995E+02   5.001783E+02   4.609880E+02   5.767560E+02   5.638833E+02   4.700461E+02   6.027584E+02   5.916094E+02   6.076760E+02   6.016420E+02   5.374138E+02   5.518794E+02   5.231657E+02   5.651144E+02   5.757506E+02   4.509333E+02   4.434486E+02   4.454713E+02   4.455480E+02   5.235634E+02   5.550767E+02   5.120744E+02   5.094722E+02   5.138001E+02   5.010494E+02   5.055336E+02   4.968791E+02   4.745407E+02   4.899454E+02   4.796456E+02   5.206237E+02   5.406458E+02   5.396622E+02   5.402695E+02   5.430230E+02   5.809583E+02   6.497389E+02   6.726766E+02   6.274929E+02   6.178560E+02   5.549359E+02   5.994164E+02   6.020341E+02   6.402654E+02   6.592877E+02   6.519550E+02   6.386228E+02   6.241354E+02   6.340859E+02   6.445428E+02   6.528885E+02   6.563602E+02   6.510834E+02   6.443107E+02   6.715248E+02   6.853540E+02   7.071253E+02   7.160424E+02   6.925015E+02   7.238478E+02   7.487904E+02   7.478851E+02   7.562327E+02   7.941299E+02   7.716483E+02   8.223831E+02   8.533827E+02
   6.431334E+02   6.682315E+02   6.655128E+02   6.697374E+02   6.552543E+02   5.191659E+02   5.917932E+02   4.825701E+02   5.686360E+02   5.693643E+02   4.757220E+02   4.602497E+02   4.601647E+02   4.912843E+02   5.929872E+02   5.800467E+02   5.833767E+02   5.925286E+02   5.959410E+02   5.708500E+02   4.695959E+02   4.986482E+02   4.385914E+02   4.447398E+02   4.433245E+02   4.454823E+02   4.452879E+02   4.980500E+02   4.803558E+02   5.150446E+02   4.977254E+02   4.966118E+02   4.956106E+02   5.031846E+02   4.924324E+02   4.934455E+02   5.198004E+02   5.296458E+02   5.378681E+02   5.391640E+02   5.364130E+02   5.356897E+02   5.380017E+02   5.918829E+02   6.210035E+02   6.828920E+02   6.601290E+02   6.511736E+02   6.407070E+02   6.601939E+02   6.469491E+02   6.597357E+02   6.590614E+02   6.574279E+02   6.487906E+02   6.328153E+02   6.399776E+02   6.410839E+02   6.393376E+02   6.503417E+02   6.559734E+02   6.679779E+02   6.778994E+02   6.934891E+02   6.859965E+02   6.830077E+02   7.226647E+02   7.599800E+02   7.397115E+02   7.451980E+02   7.943067E+02   7.929165E+02   7.711962E+02   7.642053E+02   7.865729E+02
   6.568273E+02   6.779528E+02   7.004005E+02   6.822652E+02   6.648328E+02   6.612747E+02   6.571202E+02   6.556130E+02   6.125861E+02   5.772744E+02   5.985654E+02   4.605025E+02   4.606317E+02   5.313922E+02   5.885452E+02   5.778806E+02   5.345052E+02   5.777989E+02   5.696478E+02   5.727424E+02   4.431280E+02   4.319626E+02   4.449725E+02   4.429922E+02   4.454168E+02   4.715599E+02   4.865423E+02   4.993210E+02   5.162015E+02   5.233392E+02   4.989576E+02   5.091150E+02   5.038498E+02   4.923818E+02   4.896769E+02   5.136120E+02   5.166996E+02   5.188702E+02   5.312415E+02   5.296419E+02   5.311809E+02   5.299677E+02   5.503485E+02   5.717062E+02   6.308508E+02   6.417189E+02   6.698489E+02   6.764249E+02   6.825173E+02   6.706648E+02   6.595312E+02   6.580314E+02   6.581539E+02   6.598625E+02   6.462783E+02   6.388884E+02   6.463456E+02   6.499376E+02   6.361114E+02   6.431071E+02   6.573171E+02   6.731664E+02   6.906543E+02   6.742647E+02   6.774578E+02   7.122257E+02   7.200090E+02   7.170920E+02   7.123497E+02   7.458054E+02   7.831509E+02   7.899709E+02   7.913161E+02   7.775876E+02   7.509182E+02
   6.751415E+02   6.650206E+02   6.823000E+02   6.670104E+02   6.733947E+02   6.814832E+02   6.638891E+02   6.313509E+02   6.174293E+02   6.173167E+02   5.522126E+02   5.843412E+02   4.571617E+02   4.569238E+02   5.729922E+02   5.616448E+02   5.597314E+02   5.610066E+02   5.725842E+02   4.479067E+02   4.452461E+02   4.452461E+02   4.456541E+02   4.453286E+02   4.700580E+02   4.919710E+02   5.136981E+02   4.946147E+02   5.011010E+02   4.888402E+02   5.008617E+02   4.995801E+02   4.871072E+02   4.890537E+02   5.049068E+02   5.096656E+02   5.096894E+02   5.194503E+02   5.433053E+02   5.285721E+02   5.292676E+02   5.247581E+02   5.473244E+02   5.532663E+02   5.984459E+02   6.388088E+02   6.577686E+02   6.314233E+02   7.079116E+02   6.869891E+02   6.693354E+02   6.541283E+02   6.382078E+02   6.547248E+02   6.447393E+02   6.447788E+02   6.403801E+02   6.483481E+02   6.429291E+02   6.518354E+02   6.592886E+02   6.701161E+02   6.864474E+02   6.838502E+02   7.093806E+02   7.009015E+02   6.794377E+02   7.020421E+02   7.297715E+02   7.469645E+02   7.588854E+02   7.808219E+02   7.698315E+02   7.513622E+02   7.534286E+02
   6.493074E+02   6.342584E+02   6.163102E+02   6.907462E+02   6.686464E+02   6.604016E+02   6.669791E+02   6.255870E+02   6.354373E+02   6.221308E+02   6.083271E+02   5.832181E+02   4.971681E+02   4.569809E+02   4.523387E+02   4.544991E+02   5.394001E+02   5.578757E+02   5.575377E+02   4.359242E+02   4.451804E+02   4.449734E+02   4.452789E+02   4.806240E+02   4.805927E+02   4.873714E+02   4.890153E+02   4.894758E+02   5.074923E+02   5.202422E+02   5.000092E+02   4.941774E+02   4.896292E+02   4.975176E+02   5.043436E+02   5.069559E+02   5.098083E+02   5.160389E+02   5.235925E+02   5.279889E+02   5.209734E+02   5.246917E+02   5.326995E+02   5.548264E+02   5.571649E+02   5.766038E+02   5.859445E+02   6.690948E+02   6.910817E+02   7.097382E+02   6.844990E+02   6.724236E+02   6.572461E+02   6.446759E+02   6.011716E+02   6.526442E+02   6.297409E+02   6.044782E+02   6.253633E+02   6.514210E+02   6.778690E+02   6.696322E+02   6.856498E+02   6.715709E+02   6.725369E+02   6.922960E+02   7.318289E+02   7.509428E+02   7.546540E+02   7.684315E+02   7.804781E+02   7.466627E+02   7.472570E+02   7.333442E+02   7.325872E+02
   6.694372E+02   6.734298E+02   6.618194E+02   6.726464E+02   6.612301E+02   6.496013E+02   6.335374E+02   6.388832E+02   6.523004E+02   6.395691E+02   6.061324E+02   6.097769E+02   5.383986E+02   4.507724E+02   5.021912E+02   4.480817E+02   4.479953E+02   4.431940E+02   4.386707E+02   4.241780E+02   4.451478E+02   4.451805E+02   4.617691E+02   4.389141E+02   4.858835E+02   4.895007E+02   4.944684E+02   4.970366E+02   5.125881E+02   4.815710E+02   4.948737E+02   4.946818E+02   4.946819E+02   4.948595E+02   4.995335E+02   5.044501E+02   5.083584E+02   5.184742E+02   5.245492E+02   5.232981E+02   5.196942E+02   5.261295E+02   5.396594E+02   5.596404E+02   5.855504E+02   5.811946E+02   5.907144E+02   6.347495E+02   6.491012E+02   6.688727E+02   7.194384E+02   6.946431E+02   6.669960E+02   6.458958E+02   6.087137E+02   6.348910E+02   6.270668E+02   6.277980E+02   6.294240E+02   6.398359E+02   6.497441E+02   6.551284E+02   6.314261E+02   6.737679E+02   6.997769E+02   7.197900E+02   7.075521E+02   7.104039E+02   7.448578E+02   7.643796E+02   7.905109E+02   7.631935E+02   7.598419E+02   7.219833E+02   7.810353E+02