# RCH package for  MODFLOW-2005, generated by Flopy.
         3         0
         1        -1 # Stress period 1
INTERNAL               1  (75E15.6) -1 #rech_1                        
   6.000000E-02   6.000000E-02   6.000000E-02   6.000000E-02   6.000000E-02   6.000000E-02   6.000000E-02   6.000000E-02   6.000000E-02   6.000000E-02   6.000000E-02   6.000000E-02   6.000000E-02   6.000000E-02   6.000000E-02   6.000000E-02   6.000000E-02   6.000000E-02   6.000000E-02   6.000000E-02   6.000000E-02   6.000000E-02   6.000000E-02   6.000000E-02   6.000000E-02   6.000000E-02   6.000000E-02   6.000000E-02   6.000000E-02   6.000000E-02   6.000000E-02   6.000000E-02   6.000000E-02   6.000000E-02   6.000000E-02   6.000000E-02   6.000000E-02   6.000000E-02   6.000000E-02   6.000000E-02   6.000000E-02   6.000000E-02   6.000000E-02   6.000000E-02   6.000000E-02   6.000000E-02   6.000000E-02   6.000000E-02   6.000000E-02   6.000000E-02   6.000000E-02   6.000000E-02   6.000000E-02   6.000000E-02   6.000000E-02   6.000000E-02   6.000000E-02   6.000000E-02   6.000000E-02   6.000000E-02   6.000000E-02   6.000000E-02   6.000000E-02   6.000000E-02   6.000000E-02   6.000000E-02   6.000000E-02   6.000000E-02   6.000000E-02   6.000000E-02   6.000000E-02   6.000000E-02   6.000000E-02   6.000000E-02   6.000000E-02
   6.000000E-02   6.000000E-02   6.000000E-02   6.000000E-02   6.000000E-02   6.000000E-02   6.000000E-02   6.000000E-02   6.000000E-02   6.000000E-02   6.000000E-02   6.000000E-02   6.000000E-02   6.000000E-02   6.000000E-02   6.000000E-02   6.000000E-02   6.000000E-02   6.000000E-02   6.000000E-02   6.000000E-02   6.000000E-02   6.000000E-02   6.000000E-02   6.000000E-02   6.000000E-02   6.000000E-02   6.000000E-02   6.000000E-02   6.000000E-02   6.000000E-02   6.000000E-02   6.000000E-02   6.000000E-02   6.000000E-02   6.000000E-02   6.000000E-02   6.000000E-02   6.000000E-02   6.000000E-02   6.000000E-02   6.000000E-02   6.000000E-02   6.000000E-02   6.000000E-02   6.000000E-02   6.000000E-02   6.000000E-02   6.000000E-02   6.000000E-02   6.000000E-02   6.000000E-02   6.000000E-02   6.000000E-02   6.000000E-02   6.000000E-02   6.000000E-02   6.000000E-02   6.000000E-02   6.000000E-02   6.000000E-02   6.000000E-02   6.000000E-02   6.000000E-02   6.000000E-02   6.000000E-02   6.000000E-02   6.000000E-02   6.000000E-02   6.000000E-02   6.000000E-02   6.000000E-02   6.000000E-02   6.000000E-02   6.000000E-02
   6.000000E-02   6.000000E-02   6.000000E-02   6.000000E-02   6.000000E-02   6.000000E-02   6.000000E-02   6.000000E-02   6.000000E-02   6.000000E-02   6.000000E-02   6.000000E-02   6.000000E-02   6.000000E-02   6.000000E-02   6.000000E-02   6.000000E-02   6.000000E-02   6.000000E-02   6.000000E-02   6.000000E-02   6.000000E-02   6.000000E-02   6.000000E-02   6.000000E-02   6.000000E-02   6.000000E-02   6.000000E-02   6.000000E-02   6.000000E-02   6.000000E-02   6.000000E-02   6.000000E-02   6.000000E-02   6.000000E-02   6.000000E-02   6.000000E-02   6.000000E-02   6.000000E-02   6.000000E-02   6.000000E-02   6.000000E-02   6.000000E-02   6.000000E-02   6.000000E-02   6.000000E-02   6.000000E-02   6.000000E-02   6.000000E-02   6.000000E-02   6.000000E-02   6.000000E-02   6.000000E-02   6.000000E-02   6.000000E-02   6.000000E-02   6.000000E-02   6.000000E-02   6.000000E-02   6.000000E-02   6.000000E-02   6.000000E-02   6.000000E-02   6.000000E-02   6.000000E-02   6.000000E-02   6.000000E-02   6.000000E-02   6.000000E-02   6.000000E-02   6.000000E-02   6.000000E-02   6.000000E-02   6.000000E-02   6.000000E-02
   6.000000E-02   6.000000E-02   6.000000E-02   6.000000E-02   6.000000E-02   6.000000E-02   6.000000E-02   6.000000E-02   6.000000E-02   6.000000E-02   6.000000E-02   6.000000E-02   6.000000E-02   6.000000E-02   6.000000E-02   6.000000E-02   6.000000E-02   6.000000E-02   6.000000E-02   6.000000E-02   6.000000E-02   6.000000E-02   6.000000E-02   6.000000E-02   6.000000E-02   6.000000E-02   6.000000E-02   6.000000E-02   6.000000E-02   6.000000E-02   6.000000E-02   6.000000E-02   6.000000E-02   6.000000E-02   6.000000E-02   6.000000E-02   6.000000E-02   6.000000E-02   6.000000E-02   6.000000E-02   6.000000E-02   6.000000E-02   6.000000E-02   6.000000E-02   6.000000E-02   6.000000E-02   6.000000E-02   6.000000E-02   6.000000E-02   6.000000E-02   6.000000E-02   6.000000E-02   6.000000E-02   6.000000E-02   6.000000E-02   6.000000E-02   6.000000E-02   6.000000E-02   6.000000E-02   6.000000E-02   6.000000E-02   6.000000E-02   6.000000E-02   6.000000E-02   6.000000E-02   6.000000E-02   6.000000E-02   6.000000E-02   6.000000E-02   6.000000E-02   6.000000E-02   6.000000E-02   6.000000E-02   6.000000E-02   6.000000E-02
   6.000000E-02   6.000000E-02   6.000000E-02   6.000000E-02   6.000000E-02   6.000000E-02   6.000000E-02   6.000000E-02   6.000000E-02   6.000000E-02   6.000000E-02   6.000000E-02   6.000000E-02   6.000000E-02   6.000000E-02   6.000000E-02   6.000000E-02   6.000000E-02   6.000000E-02   6.000000E-02   6.000000E-02   6.000000E-02   6.000000E-02   6.000000E-02   6.000000E-02   6.000000E-02   6.000000E-02   6.000000E-02   6.000000E-02   6.000000E-02   6.000000E-02   6.000000E-02   6.000000E-02   6.000000E-02   6.000000E-02   6.000000E-02   6.000000E-02   6.000000E-02   6.000000E-02   6.000000E-02   6.000000E-02   6.000000E-02   6.000000E-02   6.000000E-02   6.000000E-02   6.000000E-02   6.000000E-02   6.000000E-02   6.000000E-02   6.000000E-02   6.000000E-02   6.000000E-02   6.000000E-02   6.000000E-02   6.000000E-02   6.000000E-02   6.000000E-02   6.000000E-02   6.000000E-02   6.000000E-02   6.000000E-02   6.000000E-02   6.000000E-02   6.000000E-02   6.000000E-02   6.000000E-02   6.000000E-02   6.000000E-02   6.000000E-02   6.000000E-02   6.000000E-02   6.000000E-02   6.000000E-02   6.000000E-02   6.000000E-02
   6.000000E-02   6.000000E-02   6.000000E-02   6.000000E-02   6.000000E-02   6.000000E-02   6.000000E-02   6.000000E-02   6.000000E-02   6.000000E-02   6.000000E-02   6.000000E-02   6.000000E-02   6.000000E-02   6.000000E-02   6.000000E-02   6.000000E-02   6.000000E-02   6.000000E-02   6.000000E-02   6.000000E-02   6.000000E-02   6.000000E-02   6.000000E-02   6.000000E-02   6.000000E-02   6.000000E-02   6.000000E-02   6.000000E-02   6.000000E-02   6.000000E-02   6.000000E-02   6.000000E-02   6.000000E-02   6.000000E-02   6.000000E-02   6.000000E-02   6.000000E-02   6.000000E-02   6.000000E-02   6.000000E-02   6.000000E-02   6.000000E-02   6.000000E-02   6.000000E-02   6.000000E-02   6.000000E-02   6.000000E-02   6.000000E-02   6.000000E-02   6.000000E-02   6.000000E-02   6.000000E-02   6.000000E-02   6.000000E-02   6.000000E-02   6.000000E-02   6.000000E-02   6.000000E-02   6.000000E-02   6.000000E-02   6.000000E-02   6.000000E-02   6.000000E-02   6.000000E-02   6.000000E-02   6.000000E-02   6.000000E-02   6.000000E-02   6.000000E-02   6.000000E-02   6.000000E-02   6.000000E-02   6.000000E-02   6.000000E-02
   6.000000E-02   6.000000E-02   6.000000E-02   6.000000E-02   6.000000E-02   6.000000E-02   6.000000E-02   6.000000E-02   6.000000E-02   6.000000E-02   6.000000E-02   6.000000E-02   6.000000E-02   6.000000E-02   6.000000E-02   6.000000E-02   6.000000E-02   6.000000E-02   6.000000E-02   6.000000E-02   6.000000E-02   6.000000E-02   6.000000E-02   6.000000E-02   6.000000E-02   6.000000E-02   6.000000E-02   6.000000E-02   6.000000E-02   6.000000E-02   6.000000E-02   6.000000E-02   6.000000E-02   6.000000E-02   6.000000E-02   6.000000E-02   6.000000E-02   6.000000E-02   6.000000E-02   6.000000E-02   6.000000E-02   6.000000E-02   6.000000E-02   6.000000E-02   6.000000E-02   6.000000E-02   6.000000E-02   6.000000E-02   6.000000E-02   6.000000E-02   6.000000E-02   6.000000E-02   6.000000E-02   6.000000E-02   6.000000E-02   6.000000E-02   6.000000E-02   6.000000E-02   6.000000E-02   6.000000E-02   6.000000E-02   6.000000E-02   6.000000E-02   6.000000E-02   6.000000E-02   6.000000E-02   6.000000E-02   6.000000E-02   6.000000E-02   6.000000E-02   6.000000E-02   6.000000E-02   6.000000E-02   6.000000E-02   6.000000E-02
   6.000000E-02   6.000000E-02   6.000000E-02   6.000000E-02   6.000000E-02   6.000000E-02   6.000000E-02   6.000000E-02   6.000000E-02   6.000000E-02   6.000000E-02   6.000000E-02   6.000000E-02   6.000000E-02   6.000000E-02   6.000000E-02   6.000000E-02   6.000000E-02   6.000000E-02   6.000000E-02   6.000000E-02   6.000000E-02   6.000000E-02   6.000000E-02   6.000000E-02   6.000000E-02   6.000000E-02   6.000000E-02   6.000000E-02   6.000000E-02   6.000000E-02   6.000000E-02   6.000000E-02   6.000000E-02   6.000000E-02   6.000000E-02   6.000000E-02   6.000000E-02   6.000000E-02   6.000000E-02   6.000000E-02   6.000000E-02   6.000000E-02   6.000000E-02   6.000000E-02   6.000000E-02   6.000000E-02   6.000000E-02   6.000000E-02   6.000000E-02   6.000000E-02   6.000000E-02   6.000000E-02   6.000000E-02   6.000000E-02   6.000000E-02   6.000000E-02   6.000000E-02   6.000000E-02   6.000000E-02   6.000000E-02   6.000000E-02   6.000000E-02   6.000000E-02   6.000000E-02   6.000000E-02   6.000000E-02   6.000000E-02   6.000000E-02   6.000000E-02   6.000000E-02   6.000000E-02   6.000000E-02   6.000000E-02   6.000000E-02
   6.000000E-02   6.000000E-02   6.000000E-02   6.000000E-02   6.000000E-02   6.000000E-02   6.000000E-02   6.000000E-02   6.000000E-02   6.000000E-02   6.000000E-02   6.000000E-02   6.000000E-02   6.000000E-02   6.000000E-02   6.000000E-02   6.000000E-02   6.000000E-02   6.000000E-02   6.000000E-02   6.000000E-02   6.000000E-02   6.000000E-02   6.000000E-02   6.000000E-02   6.000000E-02   6.000000E-02   6.000000E-02   6.000000E-02   6.000000E-02   6.000000E-02   6.000000E-02   6.000000E-02   6.000000E-02   6.000000E-02   6.000000E-02   6.000000E-02   6.000000E-02   6.000000E-02   6.000000E-02   6.000000E-02   6.000000E-02   6.000000E-02   6.000000E-02   6.000000E-02   6.000000E-02   6.000000E-02   6.000000E-02   6.000000E-02   6.000000E-02   6.000000E-02   6.000000E-02   6.000000E-02   6.000000E-02   6.000000E-02   6.000000E-02   6.000000E-02   6.000000E-02   6.000000E-02   6.000000E-02   6.000000E-02   6.000000E-02   6.000000E-02   6.000000E-02   6.000000E-02   6.000000E-02   6.000000E-02   6.000000E-02   6.000000E-02   6.000000E-02   6.000000E-02   6.000000E-02   6.000000E-02   6.000000E-02   6.000000E-02
   6.000000E-02   6.000000E-02   6.000000E-02   6.000000E-02   6.000000E-02   6.000000E-02   6.000000E-02   6.000000E-02   6.000000E-02   6.000000E-02   6.000000E-02   6.000000E-02   6.000000E-02   6.000000E-02   6.000000E-02   6.000000E-02   6.000000E-02   6.000000E-02   6.000000E-02   6.000000E-02   6.000000E-02   6.000000E-02   6.000000E-02   6.000000E-02   6.000000E-02   6.000000E-02   6.000000E-02   6.000000E-02   6.000000E-02   6.000000E-02   6.000000E-02   6.000000E-02   6.000000E-02   6.000000E-02   6.000000E-02   6.000000E-02   6.000000E-02   6.000000E-02   6.000000E-02   6.000000E-02   6.000000E-02   6.000000E-02   6.000000E-02   6.000000E-02   6.000000E-02   6.000000E-02   6.000000E-02   6.000000E-02   6.000000E-02   6.000000E-02   6.000000E-02   6.000000E-02   6.000000E-02   6.000000E-02   6.000000E-02   6.000000E-02   6.000000E-02   6.000000E-02   6.000000E-02   6.000000E-02   6.000000E-02   6.000000E-02   6.000000E-02   6.000000E-02   6.000000E-02   6.000000E-02   6.000000E-02   6.000000E-02   6.000000E-02   6.000000E-02   6.000000E-02   6.000000E-02   6.000000E-02   6.000000E-02   6.000000E-02
   6.000000E-02   6.000000E-02   6.000000E-02   6.000000E-02   6.000000E-02   6.000000E-02   6.000000E-02   6.000000E-02   6.000000E-02   6.000000E-02   6.000000E-02   6.000000E-02   6.000000E-02   6.000000E-02   6.000000E-02   6.000000E-02   6.000000E-02   6.000000E-02   6.000000E-02   6.000000E-02   6.000000E-02   6.000000E-02   6.000000E-02   6.000000E-02   6.000000E-02   6.000000E-02   6.000000E-02   6.000000E-02   6.000000E-02   6.000000E-02   6.000000E-02   6.000000E-02   6.000000E-02   6.000000E-02   6.000000E-02   6.000000E-02   6.000000E-02   6.000000E-02   6.000000E-02   6.000000E-02   6.000000E-02   6.000000E-02   6.000000E-02   6.000000E-02   6.000000E-02   6.000000E-02   6.000000E-02   6.000000E-02   6.000000E-02   6.000000E-02   6.000000E-02   6.000000E-02   6.000000E-02   6.000000E-02   6.000000E-02   6.000000E-02   6.000000E-02   6.000000E-02   6.000000E-02   6.000000E-02   6.000000E-02   6.000000E-02   6.000000E-02   6.000000E-02   6.000000E-02   6.000000E-02   6.000000E-02   6.000000E-02   6.000000E-02   6.000000E-02   6.000000E-02   6.000000E-02   6.000000E-02   6.000000E-02   6.000000E-02
   6.000000E-02   6.000000E-02   6.000000E-02   6.000000E-02   6.000000E-02   6.000000E-02   6.000000E-02   6.000000E-02   6.000000E-02   6.000000E-02   6.000000E-02   6.000000E-02   6.000000E-02   6.000000E-02   6.000000E-02   6.000000E-02   6.000000E-02   6.000000E-02   6.000000E-02   6.000000E-02   6.000000E-02   6.000000E-02   6.000000E-02   6.000000E-02   6.000000E-02   6.000000E-02   6.000000E-02   6.000000E-02   6.000000E-02   6.000000E-02   6.000000E-02   6.000000E-02   6.000000E-02   6.000000E-02   6.000000E-02   6.000000E-02   6.000000E-02   6.000000E-02   6.000000E-02   6.000000E-02   6.000000E-02   6.000000E-02   6.000000E-02   6.000000E-02   6.000000E-02   6.000000E-02   6.000000E-02   6.000000E-02   6.000000E-02   6.000000E-02   6.000000E-02   6.000000E-02   6.000000E-02   6.000000E-02   6.000000E-02   6.000000E-02   6.000000E-02   6.000000E-02   6.000000E-02   6.000000E-02   6.000000E-02   6.000000E-02   6.000000E-02   6.000000E-02   6.000000E-02   6.000000E-02   6.000000E-02   6.000000E-02   6.000000E-02   6.000000E-02   6.000000E-02   6.000000E-02   6.000000E-02   6.000000E-02   6.000000E-02
   6.000000E-02   6.000000E-02   6.000000E-02   6.000000E-02   6.000000E-02   6.000000E-02   6.000000E-02   6.000000E-02   6.000000E-02   6.000000E-02   6.000000E-02   6.000000E-02   6.000000E-02   6.000000E-02   6.000000E-02   6.000000E-02   6.000000E-02   6.000000E-02   6.000000E-02   6.000000E-02   6.000000E-02   6.000000E-02   6.000000E-02   6.000000E-02   6.000000E-02   6.000000E-02   6.000000E-02   6.000000E-02   6.000000E-02   6.000000E-02   6.000000E-02   6.000000E-02   6.000000E-02   6.000000E-02   6.000000E-02   6.000000E-02   6.000000E-02   6.000000E-02   6.000000E-02   6.000000E-02   6.000000E-02   6.000000E-02   6.000000E-02   6.000000E-02   6.000000E-02   6.000000E-02   6.000000E-02   6.000000E-02   6.000000E-02   6.000000E-02   6.000000E-02   6.000000E-02   6.000000E-02   6.000000E-02   6.000000E-02   6.000000E-02   6.000000E-02   6.000000E-02   6.000000E-02   6.000000E-02   6.000000E-02   6.000000E-02   6.000000E-02   6.000000E-02   6.000000E-02   6.000000E-02   6.000000E-02   6.000000E-02   6.000000E-02   6.000000E-02   6.000000E-02   6.000000E-02   6.000000E-02   6.000000E-02   6.000000E-02
   6.000000E-02   6.000000E-02   6.000000E-02   6.000000E-02   6.000000E-02   6.000000E-02   6.000000E-02   6.000000E-02   6.000000E-02   6.000000E-02   6.000000E-02   6.000000E-02   6.000000E-02   6.000000E-02   6.000000E-02   6.000000E-02   6.000000E-02   6.000000E-02   6.000000E-02   6.000000E-02   6.000000E-02   6.000000E-02   6.000000E-02   6.000000E-02   6.000000E-02   6.000000E-02   6.000000E-02   6.000000E-02   6.000000E-02   6.000000E-02   6.000000E-02   6.000000E-02   6.000000E-02   6.000000E-02   6.000000E-02   6.000000E-02   6.000000E-02   6.000000E-02   6.000000E-02   6.000000E-02   6.000000E-02   6.000000E-02   6.000000E-02   6.000000E-02   6.000000E-02   6.000000E-02   6.000000E-02   6.000000E-02   6.000000E-02   6.000000E-02   6.000000E-02   6.000000E-02   6.000000E-02   6.000000E-02   6.000000E-02   6.000000E-02   6.000000E-02   6.000000E-02   6.000000E-02   6.000000E-02   6.000000E-02   6.000000E-02   6.000000E-02   6.000000E-02   6.000000E-02   6.000000E-02   6.000000E-02   6.000000E-02   6.000000E-02   6.000000E-02   6.000000E-02   6.000000E-02   6.000000E-02   6.000000E-02   6.000000E-02
   6.000000E-02   6.000000E-02   6.000000E-02   6.000000E-02   6.000000E-02   6.000000E-02   6.000000E-02   6.000000E-02   6.000000E-02   6.000000E-02   6.000000E-02   6.000000E-02   6.000000E-02   6.000000E-02   6.000000E-02   6.000000E-02   6.000000E-02   6.000000E-02   6.000000E-02   6.000000E-02   6.000000E-02   6.000000E-02   6.000000E-02   6.000000E-02   6.000000E-02   6.000000E-02   6.000000E-02   6.000000E-02   6.000000E-02   6.000000E-02   6.000000E-02   6.000000E-02   6.000000E-02   6.000000E-02   6.000000E-02   6.000000E-02   6.000000E-02   6.000000E-02   6.000000E-02   6.000000E-02   6.000000E-02   6.000000E-02   6.000000E-02   6.000000E-02   6.000000E-02   6.000000E-02   6.000000E-02   6.000000E-02   6.000000E-02   6.000000E-02   6.000000E-02   6.000000E-02   6.000000E-02   6.000000E-02   6.000000E-02   6.000000E-02   6.000000E-02   6.000000E-02   6.000000E-02   6.000000E-02   6.000000E-02   6.000000E-02   6.000000E-02   6.000000E-02   6.000000E-02   6.000000E-02   6.000000E-02   6.000000E-02   6.000000E-02   6.000000E-02   6.000000E-02   6.000000E-02   6.000000E-02   6.000000E-02   6.000000E-02
   6.000000E-02   6.000000E-02   6.000000E-02   6.000000E-02   6.000000E-02   6.000000E-02   6.000000E-02   6.000000E-02   6.000000E-02   6.000000E-02   6.000000E-02   6.000000E-02   6.000000E-02   6.000000E-02   6.000000E-02   6.000000E-02   6.000000E-02   6.000000E-02   6.000000E-02   6.000000E-02   6.000000E-02   6.000000E-02   6.000000E-02   6.000000E-02   6.000000E-02   6.000000E-02   6.000000E-02   6.000000E-02   6.000000E-02   6.000000E-02   6.000000E-02   6.000000E-02   6.000000E-02   6.000000E-02   6.000000E-02   6.000000E-02   6.000000E-02   6.000000E-02   6.000000E-02   6.000000E-02   6.000000E-02   6.000000E-02   6.000000E-02   6.000000E-02   6.000000E-02   6.000000E-02   6.000000E-02   6.000000E-02   6.000000E-02   6.000000E-02   6.000000E-02   6.000000E-02   6.000000E-02   6.000000E-02   6.000000E-02   6.000000E-02   6.000000E-02   6.000000E-02   6.000000E-02   6.000000E-02   6.000000E-02   6.000000E-02   6.000000E-02   6.000000E-02   6.000000E-02   6.000000E-02   6.000000E-02   6.000000E-02   6.000000E-02   6.000000E-02   6.000000E-02   6.000000E-02   6.000000E-02   6.000000E-02   6.000000E-02
   6.000000E-02   6.000000E-02   6.000000E-02   6.000000E-02   6.000000E-02   6.000000E-02   6.000000E-02   6.000000E-02   6.000000E-02   6.000000E-02   6.000000E-02   6.000000E-02   6.000000E-02   6.000000E-02   6.000000E-02   6.000000E-02   6.000000E-02   6.000000E-02   6.000000E-02   6.000000E-02   6.000000E-02   6.000000E-02   6.000000E-02   6.000000E-02   6.000000E-02   6.000000E-02   6.000000E-02   6.000000E-02   6.000000E-02   6.000000E-02   6.000000E-02   6.000000E-02   6.000000E-02   6.000000E-02   6.000000E-02   6.000000E-02   6.000000E-02   6.000000E-02   6.000000E-02   6.000000E-02   6.000000E-02   6.000000E-02   6.000000E-02   6.000000E-02   6.000000E-02   6.000000E-02   6.000000E-02   6.000000E-02   6.000000E-02   6.000000E-02   6.000000E-02   6.000000E-02   6.000000E-02   6.000000E-02   6.000000E-02   6.000000E-02   6.000000E-02   6.000000E-02   6.000000E-02   6.000000E-02   6.000000E-02   6.000000E-02   6.000000E-02   6.000000E-02   6.000000E-02   6.000000E-02   6.000000E-02   6.000000E-02   6.000000E-02   6.000000E-02   6.000000E-02   6.000000E-02   6.000000E-02   6.000000E-02   6.000000E-02
   6.000000E-02   6.000000E-02   6.000000E-02   6.000000E-02   6.000000E-02   6.000000E-02   6.000000E-02   6.000000E-02   6.000000E-02   6.000000E-02   6.000000E-02   6.000000E-02   6.000000E-02   6.000000E-02   6.000000E-02   6.000000E-02   6.000000E-02   6.000000E-02   6.000000E-02   6.000000E-02   6.000000E-02   6.000000E-02   6.000000E-02   6.000000E-02   6.000000E-02   6.000000E-02   6.000000E-02   6.000000E-02   6.000000E-02   6.000000E-02   6.000000E-02   6.000000E-02   6.000000E-02   6.000000E-02   6.000000E-02   6.000000E-02   6.000000E-02   6.000000E-02   6.000000E-02   6.000000E-02   6.000000E-02   6.000000E-02   6.000000E-02   6.000000E-02   6.000000E-02   6.000000E-02   6.000000E-02   6.000000E-02   6.000000E-02   6.000000E-02   6.000000E-02   6.000000E-02   6.000000E-02   6.000000E-02   6.000000E-02   6.000000E-02   6.000000E-02   6.000000E-02   6.000000E-02   6.000000E-02   6.000000E-02   6.000000E-02   6.000000E-02   6.000000E-02   6.000000E-02   6.000000E-02   6.000000E-02   6.000000E-02   6.000000E-02   6.000000E-02   6.000000E-02   6.000000E-02   6.000000E-02   6.000000E-02   6.000000E-02
   6.000000E-02   6.000000E-02   6.000000E-02   6.000000E-02   6.000000E-02   6.000000E-02   6.000000E-02   6.000000E-02   6.000000E-02   6.000000E-02   6.000000E-02   6.000000E-02   6.000000E-02   6.000000E-02   6.000000E-02   6.000000E-02   6.000000E-02   6.000000E-02   6.000000E-02   6.000000E-02   6.000000E-02   6.000000E-02   6.000000E-02   6.000000E-02   6.000000E-02   6.000000E-02   6.000000E-02   6.000000E-02   6.000000E-02   6.000000E-02   6.000000E-02   6.000000E-02   6.000000E-02   6.000000E-02   6.000000E-02   6.000000E-02   6.000000E-02   6.000000E-02   6.000000E-02   6.000000E-02   6.000000E-02   6.000000E-02   6.000000E-02   6.000000E-02   6.000000E-02   6.000000E-02   6.000000E-02   6.000000E-02   6.000000E-02   6.000000E-02   6.000000E-02   6.000000E-02   6.000000E-02   6.000000E-02   6.000000E-02   6.000000E-02   6.000000E-02   6.000000E-02   6.000000E-02   6.000000E-02   6.000000E-02   6.000000E-02   6.000000E-02   6.000000E-02   6.000000E-02   6.000000E-02   6.000000E-02   6.000000E-02   6.000000E-02   6.000000E-02   6.000000E-02   6.000000E-02   6.000000E-02   6.000000E-02   6.000000E-02
   6.000000E-02   6.000000E-02   6.000000E-02   6.000000E-02   6.000000E-02   6.000000E-02   6.000000E-02   6.000000E-02   6.000000E-02   6.000000E-02   6.000000E-02   6.000000E-02   6.000000E-02   6.000000E-02   6.000000E-02   6.000000E-02   6.000000E-02   6.000000E-02   6.000000E-02   6.000000E-02   6.000000E-02   6.000000E-02   6.000000E-02   6.000000E-02   6.000000E-02   6.000000E-02   6.000000E-02   6.000000E-02   6.000000E-02   6.000000E-02   6.000000E-02   6.000000E-02   6.000000E-02   6.000000E-02   6.000000E-02   6.000000E-02   6.000000E-02   6.000000E-02   6.000000E-02   6.000000E-02   6.000000E-02   6.000000E-02   6.000000E-02   6.000000E-02   6.000000E-02   6.000000E-02   6.000000E-02   6.000000E-02   6.000000E-02   6.000000E-02   6.000000E-02   6.000000E-02   6.000000E-02   6.000000E-02   6.000000E-02   6.000000E-02   6.000000E-02   6.000000E-02   6.000000E-02   6.000000E-02   6.000000E-02   6.000000E-02   6.000000E-02   6.000000E-02   6.000000E-02   6.000000E-02   6.000000E-02   6.000000E-02   6.000000E-02   6.000000E-02   6.000000E-02   6.000000E-02   6.000000E-02   6.000000E-02   6.000000E-02
   6.000000E-02   6.000000E-02   6.000000E-02   6.000000E-02   6.000000E-02   6.000000E-02   6.000000E-02   6.000000E-02   6.000000E-02   6.000000E-02   6.000000E-02   6.000000E-02   6.000000E-02   6.000000E-02   6.000000E-02   6.000000E-02   6.000000E-02   6.000000E-02   6.000000E-02   6.000000E-02   6.000000E-02   6.000000E-02   6.000000E-02   6.000000E-02   6.000000E-02   6.000000E-02   6.000000E-02   6.000000E-02   6.000000E-02   6.000000E-02   6.000000E-02   6.000000E-02   6.000000E-02   6.000000E-02   6.000000E-02   6.000000E-02   6.000000E-02   6.000000E-02   6.000000E-02   6.000000E-02   6.000000E-02   6.000000E-02   6.000000E-02   6.000000E-02   6.000000E-02   6.000000E-02   6.000000E-02   6.000000E-02   6.000000E-02   6.000000E-02   6.000000E-02   6.000000E-02   6.000000E-02   6.000000E-02   6.000000E-02   6.000000E-02   6.000000E-02   6.000000E-02   6.000000E-02   6.000000E-02   6.000000E-02   6.000000E-02   6.000000E-02   6.000000E-02   6.000000E-02   6.000000E-02   6.000000E-02   6.000000E-02   6.000000E-02   6.000000E-02   6.000000E-02   6.000000E-02   6.000000E-02   6.000000E-02   6.000000E-02
   6.000000E-02   6.000000E-02   6.000000E-02   6.000000E-02   6.000000E-02   6.000000E-02   6.000000E-02   6.000000E-02   6.000000E-02   6.000000E-02   6.000000E-02   6.000000E-02   6.000000E-02   6.000000E-02   6.000000E-02   6.000000E-02   6.000000E-02   6.000000E-02   6.000000E-02   6.000000E-02   6.000000E-02   6.000000E-02   6.000000E-02   6.000000E-02   6.000000E-02   6.000000E-02   6.000000E-02   6.000000E-02   6.000000E-02   6.000000E-02   6.000000E-02   6.000000E-02   6.000000E-02   6.000000E-02   6.000000E-02   6.000000E-02   6.000000E-02   6.000000E-02   6.000000E-02   6.000000E-02   6.000000E-02   6.000000E-02   6.000000E-02   6.000000E-02   6.000000E-02   6.000000E-02   6.000000E-02   6.000000E-02   6.000000E-02   6.000000E-02   6.000000E-02   6.000000E-02   6.000000E-02   6.000000E-02   6.000000E-02   6.000000E-02   6.000000E-02   6.000000E-02   6.000000E-02   6.000000E-02   6.000000E-02   6.000000E-02   6.000000E-02   6.000000E-02   6.000000E-02   6.000000E-02   6.000000E-02   6.000000E-02   6.000000E-02   6.000000E-02   6.000000E-02   6.000000E-02   6.000000E-02   6.000000E-02   6.000000E-02
   6.000000E-02   6.000000E-02   6.000000E-02   6.000000E-02   6.000000E-02   6.000000E-02   6.000000E-02   6.000000E-02   6.000000E-02   6.000000E-02   6.000000E-02   6.000000E-02   6.000000E-02   6.000000E-02   6.000000E-02   6.000000E-02   6.000000E-02   6.000000E-02   6.000000E-02   6.000000E-02   6.000000E-02   6.000000E-02   6.000000E-02   6.000000E-02   6.000000E-02   6.000000E-02   6.000000E-02   6.000000E-02   6.000000E-02   6.000000E-02   6.000000E-02   6.000000E-02   6.000000E-02   6.000000E-02   6.000000E-02   6.000000E-02   6.000000E-02   6.000000E-02   6.000000E-02   6.000000E-02   6.000000E-02   6.000000E-02   6.000000E-02   6.000000E-02   6.000000E-02   6.000000E-02   6.000000E-02   6.000000E-02   6.000000E-02   6.000000E-02   6.000000E-02   6.000000E-02   6.000000E-02   6.000000E-02   6.000000E-02   6.000000E-02   6.000000E-02   6.000000E-02   6.000000E-02   6.000000E-02   6.000000E-02   6.000000E-02   6.000000E-02   6.000000E-02   6.000000E-02   6.000000E-02   6.000000E-02   6.000000E-02   6.000000E-02   6.000000E-02   6.000000E-02   6.000000E-02   6.000000E-02   6.000000E-02   6.000000E-02
   6.000000E-02   6.000000E-02   6.000000E-02   6.000000E-02   6.000000E-02   6.000000E-02   6.000000E-02   6.000000E-02   6.000000E-02   6.000000E-02   6.000000E-02   6.000000E-02   6.000000E-02   6.000000E-02   6.000000E-02   6.000000E-02   6.000000E-02   6.000000E-02   6.000000E-02   6.000000E-02   6.000000E-02   6.000000E-02   6.000000E-02   6.000000E-02   6.000000E-02   6.000000E-02   6.000000E-02   6.000000E-02   6.000000E-02   6.000000E-02   6.000000E-02   6.000000E-02   6.000000E-02   6.000000E-02   6.000000E-02   6.000000E-02   6.000000E-02   6.000000E-02   6.000000E-02   6.000000E-02   6.000000E-02   6.000000E-02   6.000000E-02   6.000000E-02   6.000000E-02   6.000000E-02   6.000000E-02   6.000000E-02   6.000000E-02   6.000000E-02   6.000000E-02   6.000000E-02   6.000000E-02   6.000000E-02   6.000000E-02   6.000000E-02   6.000000E-02   6.000000E-02   6.000000E-02   6.000000E-02   6.000000E-02   6.000000E-02   6.000000E-02   6.000000E-02   6.000000E-02   6.000000E-02   6.000000E-02   6.000000E-02   6.000000E-02   6.000000E-02   6.000000E-02   6.000000E-02   6.000000E-02   6.000000E-02   6.000000E-02
   6.000000E-02   6.000000E-02   6.000000E-02   6.000000E-02   6.000000E-02   6.000000E-02   6.000000E-02   6.000000E-02   6.000000E-02   6.000000E-02   6.000000E-02   6.000000E-02   6.000000E-02   6.000000E-02   6.000000E-02   6.000000E-02   6.000000E-02   6.000000E-02   6.000000E-02   6.000000E-02   6.000000E-02   6.000000E-02   6.000000E-02   6.000000E-02   6.000000E-02   6.000000E-02   6.000000E-02   6.000000E-02   6.000000E-02   6.000000E-02   6.000000E-02   6.000000E-02   6.000000E-02   6.000000E-02   6.000000E-02   6.000000E-02   6.000000E-02   6.000000E-02   6.000000E-02   6.000000E-02   6.000000E-02   6.000000E-02   6.000000E-02   6.000000E-02   6.000000E-02   6.000000E-02   6.000000E-02   6.000000E-02   6.000000E-02   6.000000E-02   6.000000E-02   6.000000E-02   6.000000E-02   6.000000E-02   6.000000E-02   6.000000E-02   6.000000E-02   6.000000E-02   6.000000E-02   6.000000E-02   6.000000E-02   6.000000E-02   6.000000E-02   6.000000E-02   6.000000E-02   6.000000E-02   6.000000E-02   6.000000E-02   6.000000E-02   6.000000E-02   6.000000E-02   6.000000E-02   6.000000E-02   6.000000E-02   6.000000E-02
   6.000000E-02   6.000000E-02   6.000000E-02   6.000000E-02   6.000000E-02   6.000000E-02   6.000000E-02   6.000000E-02   6.000000E-02   6.000000E-02   6.000000E-02   6.000000E-02   6.000000E-02   6.000000E-02   6.000000E-02   6.000000E-02   6.000000E-02   6.000000E-02   6.000000E-02   6.000000E-02   6.000000E-02   6.000000E-02   6.000000E-02   6.000000E-02   6.000000E-02   6.000000E-02   6.000000E-02   6.000000E-02   6.000000E-02   6.000000E-02   6.000000E-02   6.000000E-02   6.000000E-02   6.000000E-02   6.000000E-02   6.000000E-02   6.000000E-02   6.000000E-02   6.000000E-02   6.000000E-02   6.000000E-02   6.000000E-02   6.000000E-02   6.000000E-02   6.000000E-02   6.000000E-02   6.000000E-02   6.000000E-02   6.000000E-02   6.000000E-02   6.000000E-02   6.000000E-02   6.000000E-02   6.000000E-02   6.000000E-02   6.000000E-02   6.000000E-02   6.000000E-02   6.000000E-02   6.000000E-02   6.000000E-02   6.000000E-02   6.000000E-02   6.000000E-02   6.000000E-02   6.000000E-02   6.000000E-02   6.000000E-02   6.000000E-02   6.000000E-02   6.000000E-02   6.000000E-02   6.000000E-02   6.000000E-02   6.000000E-02