# RIV package for  MODFLOW-2005, generated by Flopy.
       740         0
       740         0 # stress period 1
         1       100        62       489.23557         50000.0       484.23557
         1        99        62       499.96442         50000.0       494.96442
         1        98        62       501.73163         50000.0       496.73163
         1        97        62       492.35056         50000.0       487.35056
         1        97        61       490.03574         50000.0       485.03574
         1        96        61       493.27048         50000.0       488.27048
         1        96         1       440.03275         50000.0       435.03275
         1        95         1       440.03284         50000.0       435.03284
         1        95         2       439.49506         50000.0       434.49506
         1        95        61       489.16486         50000.0       484.16486
         1        95         3       439.18182         50000.0       434.18182
         1        95        62       492.54224         50000.0       487.54224
         1        95         4       436.29276         50000.0       431.29276
         1        94         4       438.89273         50000.0       433.89273
         1        94        62       490.09143         50000.0       485.09143
         1        94        61       490.24652         50000.0       485.24652
         1        94         5       442.55563         50000.0       437.55563
         1        93         5        439.9312         50000.0        434.9312
         1        93        61        489.6654         50000.0        484.6654
         1        93        62       489.66525         50000.0       484.66525
         1        93         6       439.40955         50000.0       434.40955
         1        92         5       439.43262         50000.0       434.43262
         1        92        62        494.8498         50000.0        489.8498
         1        91         5       440.16052         50000.0       435.16052
         1        91         6       440.32816         50000.0       435.32816
         1        91        62       489.54324         50000.0       484.54324
         1        91         7        440.3609         50000.0        435.3609
         1        91         8       440.36105         50000.0       435.36105
         1        90         5         440.328         50000.0         435.328
         1        90         7       440.31155         50000.0       435.31155
         1        90         8       440.26645         50000.0       435.26645
         1        90         9       435.33072         50000.0       430.33072
         1        90        62        490.3791         50000.0        485.3791
         1        90       113        606.7539         50000.0        601.7539
         1        90       114        596.7224         50000.0        591.7224
         1        90       118       601.28033         50000.0       596.28033
         1        90       119        609.6617         50000.0        604.6617
         1        90       108       567.69934         50000.0       562.69934
         1        90       120       609.38934         50000.0       604.38934
         1        90       112        579.3056         50000.0        574.3056
         1        90       109        570.0175         50000.0        565.0175
         1        90       110        570.0997         50000.0        565.0997
         1        90       111        574.5596         50000.0        569.5596
         1        90       115       588.55347         50000.0       583.55347
         1        89         5        440.0765         50000.0        435.0765
         1        89         9        440.7157         50000.0        435.7157
         1        89        62       485.44293         50000.0       480.44293
         1        89       109        569.6954         50000.0        564.6954
         1        89       110        569.9207         50000.0        564.9207
         1        89       111        569.7313         50000.0        564.7313
         1        89       115       580.73486         50000.0       575.73486
         1        89       112        569.7709         50000.0        564.7709
         1        89       107       568.89606         50000.0       563.89606
         1        89       108        567.1796         50000.0        562.1796
         1        89       120       590.57043         50000.0       585.57043
         1        89       117       580.49664         50000.0       575.49664
         1        89       118        581.7065         50000.0        576.7065
         1        89       121       593.56244         50000.0       588.56244
         1        89       116        583.6694         50000.0        578.6694
         1        89       122       594.59094         50000.0       589.59094
         1        88         5        440.2936         50000.0        435.2936
         1        88         6        440.4264         50000.0        435.4264
         1        88        25       444.96295         50000.0       439.96295
         1        88        26       446.59723         50000.0       441.59723
         1        88        27       449.69482         50000.0       444.69482
         1        88        28       449.66205         50000.0       444.66205
         1        88        29       449.73676         50000.0       444.73676
         1        88        30       449.66202         50000.0       444.66202
         1        88        31       444.71262         50000.0       439.71262
         1        88         9       440.01526         50000.0       435.01526
         1        88        22       441.19193         50000.0       436.19193
         1        88        23       443.65802         50000.0       438.65802
         1        88        24       443.65805         50000.0       438.65805
         1        88        62       480.92667         50000.0       475.92667
         1        88       116        589.4071         50000.0        584.4071
         1        88       107          562.43         50000.0          557.43
         1        88       122       589.74585         50000.0       584.74585
         1        88       123        599.2551         50000.0        594.2551
         1        88       117       583.41705         50000.0       578.41705
         1        88        19        449.0461         50000.0        444.0461
         1        88        20       449.36374         50000.0       444.36374
         1        88        21       448.34912         50000.0       443.34912
         1        88        17       438.34738         50000.0       433.34738
         1        88        18       440.84552         50000.0       435.84552
         1        88        32        449.6621         50000.0        444.6621
         1        88       106       564.76514         50000.0       559.76514
         1        88        10       437.45786         50000.0       432.45786
         1        88        16       437.50952         50000.0       432.50952
         1        88        63       486.32562         50000.0       481.32562
         1        87         6        440.4594         50000.0        435.4594
         1        87        15       437.00323         50000.0       432.00323
         1        87        16       445.77557         50000.0       440.77557
         1        87        32       443.01462         50000.0       438.01462
         1        87        33       449.66217         50000.0       444.66217
         1        87        10        440.3938         50000.0        435.3938
         1        87        63        481.9053         50000.0        476.9053
         1        87       106        569.7058         50000.0        564.7058
         1        87       123        600.2897         50000.0        595.2897
         1        87         7       440.39874         50000.0       435.39874
         1        87        14       445.74072         50000.0       440.74072
         1        87        34       449.66223         50000.0       444.66223
         1        87       105        554.7925         50000.0        549.7925
         1        87        11        438.1266         50000.0        433.1266
         1        87        13       442.07245         50000.0       437.07245
         1        87       124        604.6301         50000.0        599.6301
         1        87         8       440.46112         50000.0       435.46112
         1        87        35       453.52756         50000.0       448.52756
         1        86         8       440.45932         50000.0       435.45932
         1        86         9        440.5578         50000.0        435.5578
         1        86        11        454.2051         50000.0        449.2051
         1        86        12        437.2071         50000.0        432.2071
         1        86        13       443.07465         50000.0       438.07465
         1        86        34       444.93018         50000.0       439.93018
         1        86        35       453.70938         50000.0       448.70938
         1        86        63        492.7623         50000.0        487.7623
         1        86       104       561.58386         50000.0       556.58386
         1        86       105        556.2254         50000.0        551.2254
         1        86       124       595.53186         50000.0       590.53186
         1        86        36        451.7614         50000.0        446.7614
         1        86        37        451.5143         50000.0        446.5143
         1        86        38        454.6947         50000.0        449.6947
         1        85         9        440.5906         50000.0        435.5906
         1        85        38       449.67184         50000.0       444.67184
         1        85        63       479.41226         50000.0       474.41226
         1        85       104        552.0707         50000.0        547.0707
         1        85       124       599.29553         50000.0       594.29553
         1        85        62        480.4052         50000.0        475.4052
         1        85        39       455.47305         50000.0       450.47305
         1        85        92       529.72125         50000.0       524.72125
         1        85        93       525.65643         50000.0       520.65643
         1        85        94        530.2691         50000.0        525.2691
         1        85        91        527.2122         50000.0        522.2122
         1        84         9       440.87476         50000.0       435.87476
         1        84        39         449.672         50000.0         444.672
         1        84        62       478.10117         50000.0       473.10117
         1        84        40         459.688         50000.0         454.688
         1        84        91        523.9762         50000.0        518.9762
         1        84       104        547.1879         50000.0        542.1879
         1        84        94        520.4194         50000.0        515.4194
         1        84       124        604.6278         50000.0        599.6278
         1        84        95       577.50946         50000.0       572.50946
         1        84        90        522.4595         50000.0        517.4595
         1        84       105        555.3967         50000.0        550.3967
         1        84       125        600.5012         50000.0        595.5012
         1        84        41        460.0539         50000.0        455.0539
         1        84        89        523.5837         50000.0        518.5837
         1        84       142       629.28876         50000.0       624.28876
         1        84       143        625.9755         50000.0        620.9755
         1        83         9        441.0425         50000.0        436.0425
         1        83        41       452.16534         50000.0       447.16534
         1        83        62       478.03278         50000.0       473.03278
         1        83       104        551.4698         50000.0        546.4698
         1        83       105        549.6784         50000.0        544.6784
         1        83        95       522.25024         50000.0       517.25024
         1        83        89        524.1228         50000.0        519.1228
         1        83       147        655.0371         50000.0        650.0371
         1        83       125       599.68335         50000.0       594.68335
         1        83       126        607.9701         50000.0        602.9701
         1        83       142        638.3766         50000.0        633.3766
         1        83       143         626.399         50000.0         621.399
         1        83        10       442.01636         50000.0       437.01636
         1        83       146       650.19464         50000.0       645.19464
         1        83       141       638.60034         50000.0       633.60034
         1        83        42       459.91016         50000.0       454.91016
         1        83       148       644.71533         50000.0       639.71533
         1        83        43       459.83057         50000.0       454.83057
         1        83        44       452.13852         50000.0       447.13852
         1        83        45       454.69183         50000.0       449.69183
         1        83        63         479.496         50000.0         474.496
         1        83        46       464.56348         50000.0       459.56348
         1        83        88       519.39404         50000.0       514.39404
         1        83       144       638.33276         50000.0       633.33276
         1        83       145       654.04193         50000.0       649.04193
         1        83       134        625.4814         50000.0        620.4814
         1        83       140       638.80725         50000.0       633.80725
         1        82        10       440.70145         50000.0       435.70145
         1        82        45       454.65878         50000.0       449.65878
         1        82        46        465.0368         50000.0        460.0368
         1        82        62       476.69687         50000.0       471.69687
         1        82        63       479.65875         50000.0       474.65875
         1        82       105         550.316         50000.0         545.316
         1        82        95       530.76587         50000.0       525.76587
         1        82        88       518.40094         50000.0       513.40094
         1        82       144        632.9096         50000.0        627.9096
         1        82       145        634.8144         50000.0        629.8144
         1        82       148        644.2158         50000.0        639.2158
         1        82       126        605.3594         50000.0        600.3594
         1        82       127       610.06244         50000.0       605.06244
         1        82       133        624.5786         50000.0        619.5786
         1        82       134        625.4745         50000.0        620.4745
         1        82       128        609.2695         50000.0        604.2695
         1        82       140       646.90784         50000.0       641.90784
         1        82       135        642.3597         50000.0        637.3597
         1        82       129        622.9675         50000.0        617.9675
         1        82       130        618.6731         50000.0        613.6731
         1        82       131        627.5137         50000.0        622.5137
         1        82        47        468.0004         50000.0        463.0004
         1        82       149        642.4922         50000.0        637.4922
         1        82       139       635.52216         50000.0       630.52216
         1        82        87        514.5586         50000.0        509.5586
         1        81        10       440.73145         50000.0       435.73145
         1        81        47       467.98257         50000.0       462.98257
         1        81        63       479.44638         50000.0       474.44638
         1        81        87        535.8832         50000.0        530.8832
         1        81       105       549.79193         50000.0       544.79193
         1        81        95         532.161         50000.0         527.161
         1        81       149        658.8829         50000.0        653.8829
         1        81       150       679.19995         50000.0       674.19995
         1        81       133        631.9939         50000.0        626.9939
         1        81       131        612.8595         50000.0        607.8595
         1        81       139        639.1093         50000.0        634.1093
         1        81       135       633.91364         50000.0       628.91364
         1        81       136        701.2505         50000.0        696.2505
         1        81        96       533.76904         50000.0       528.76904
         1        81       132       617.44165         50000.0       612.44165
         1        81       137       645.30566         50000.0       640.30566
         1        81       138        637.7551         50000.0        632.7551
         1        81        62        551.2656         50000.0        546.2656
         1        81        11        440.7843         50000.0        435.7843
         1        81        86       512.71295         50000.0       507.71295
         1        81        97       539.19293         50000.0       534.19293
         1        81        48       466.67203         50000.0       461.67203
         1        81        84       532.03015         50000.0       527.03015
         1        80        11        440.7843         50000.0        435.7843
         1        80        47        459.8998         50000.0        454.8998
         1        80        48        465.2681         50000.0        460.2681
         1        80        63       468.15173         50000.0       463.15173
         1        80        85        509.2883         50000.0        504.2883
         1        80        86       516.22174         50000.0       511.22174
         1        80        97        539.7309         50000.0        534.7309
         1        80        98        542.0837         50000.0        537.0837
         1        80       105        549.5907         50000.0        544.5907
         1        80        84       504.54422         50000.0       499.54422
         1        80       150       655.10675         50000.0       650.10675
         1        80       132         610.689         50000.0         605.689
         1        80       133       662.35034         50000.0       657.35034
         1        80        12       440.81683         50000.0       435.81683
         1        80        13       440.84967         50000.0       435.84967
         1        80        62       532.78143         50000.0       527.78143
         1        80       104       546.65436         50000.0       541.65436
         1        80        61        514.9004         50000.0        509.9004
         1        80        64       479.67487         50000.0       474.67487
         1        80        60        558.6196         50000.0        553.6196
         1        80        99        541.5225         50000.0        536.5225
         1        80       100        540.9908         50000.0        535.9908
         1        80       101       544.91095         50000.0       539.91095
         1        80       102       543.29724         50000.0       538.29724
         1        80       103         542.369         50000.0         537.369
         1        80        67       480.77228         50000.0       475.77228
         1        80        68       479.74442         50000.0       474.74442
         1        80        69       480.85385         50000.0       475.85385
         1        80        70       489.71942         50000.0       484.71942
         1        80        66       481.26736         50000.0       476.26736
         1        80        65       479.35336         50000.0       474.35336
         1        79        13        440.9898         50000.0        435.9898
         1        79        60       466.48947         50000.0       461.48947
         1        79        61       479.69937         50000.0       474.69937
         1        79        48       457.20645         50000.0       452.20645
         1        79       103        544.8977         50000.0        539.8977
         1        79       104       548.73157         50000.0       543.73157
         1        79        83        509.4683         50000.0        504.4683
         1        79        84       514.69696         50000.0       509.69696
         1        79        70       480.65958         50000.0       475.65958
         1        79        71       485.47842         50000.0       480.47842
         1        79        14       441.59216         50000.0       436.59216
         1        79        49       469.71332         50000.0       464.71332
         1        79        59        479.7819         50000.0        474.7819
         1        79        52        470.7899         50000.0        465.7899
         1        79        53        473.6769         50000.0        468.6769
         1        79        54        474.6783         50000.0        469.6783
         1        79        55       474.63297         50000.0       469.63297
         1        79        56       473.20367         50000.0       468.20367
         1        79        57       477.16925         50000.0       472.16925
         1        79        58       476.05518         50000.0       471.05518
         1        79        72       489.57208         50000.0       484.57208
         1        79        50       459.68515         50000.0       454.68515
         1        79        51       459.68506         50000.0       454.68506
         1        79        82        510.3196         50000.0        505.3196
         1        79        15         441.683         50000.0         436.683
         1        78        15       441.68314         50000.0       436.68314
         1        78        82       512.44995         50000.0       507.44995
         1        78        72       493.63467         50000.0       488.63467
         1        78        73       493.17715         50000.0       488.17715
         1        78        16        441.6135         50000.0        436.6135
         1        78        17        441.6173         50000.0        436.6173
         1        78        18       441.45724         50000.0       436.45724
         1        78        74        494.5083         50000.0        489.5083
         1        78        75       492.19437         50000.0       487.19437
         1        78        76       500.76425         50000.0       495.76425
         1        77        18       441.58698         50000.0       436.58698
         1        77        82        509.7135         50000.0        504.7135
         1        77        76       499.13785         50000.0       494.13785
         1        77        19       441.22382         50000.0       436.22382
         1        77        81        509.7256         50000.0        504.7256
         1        77        77       499.86536         50000.0       494.86536
         1        77        24       441.41064         50000.0       436.41064
         1        77        25       441.44354         50000.0       436.44354
         1        77        26        441.4765         50000.0        436.4765
         1        76        19         441.638         50000.0         436.638
         1        76        20       441.25513         50000.0       436.25513
         1        76        23        441.3778         50000.0        436.3778
         1        76        24        441.4108         50000.0        436.4108
         1        76        26       441.47635         50000.0       436.47635
         1        76        77        489.4382         50000.0        484.4382
         1        76        81       505.85474         50000.0       500.85474
         1        76        80       498.07156         50000.0       493.07156
         1        76        27       441.70355         50000.0       436.70355
         1        76        21       441.32227         50000.0       436.32227
         1        76        22       441.35498         50000.0       436.35498
         1        76        78       500.21793         50000.0       495.21793
         1        76        79        509.0379         50000.0        504.0379
         1        75        27       441.66736         50000.0       436.66736
         1        74        27       441.64124         50000.0       436.64124
         1        73        27        441.6406         50000.0        436.6406
         1        73        28       441.67325         50000.0       436.67325
         1        72        28       441.67328         50000.0       436.67328
         1        71        28       441.70877         50000.0       436.70877
         1        71        29        442.6248         50000.0        437.6248
         1        70        29       441.87234         50000.0       436.87234
         1        70        30        442.2618         50000.0        437.2618
         1        69        30       441.93573         50000.0       436.93573
         1        68        30       441.89035         50000.0       436.89035
         1        68        31       442.11618         50000.0       437.11618
         1        68        32       442.69025         50000.0       437.69025
         1        68        33       442.69012         50000.0       437.69012
         1        67        33       442.69034         50000.0       437.69034
         1        67        34        442.0048         50000.0        437.0048
         1        66        34       442.17792         50000.0       437.17792
         1        66        35        442.1349         50000.0        437.1349
         1        65        35        442.0701         50000.0        437.0701
         1        64        35        442.1359         50000.0        437.1359
         1        64        36       442.16855         50000.0       437.16855
         1        63        36       442.20102         50000.0       437.20102
         1        62        36       442.23022         50000.0       437.23022
         1        62        37       442.26044         50000.0       437.26044
         1        61        37       442.29343         50000.0       437.29343
         1        61        38       442.32602         50000.0       437.32602
         1        60        38       442.61215         50000.0       437.61215
         1        60        39       466.57648         50000.0       461.57648
         1        59        39       464.24713         50000.0       459.24713
         1        59        40        464.1269         50000.0        459.1269
         1        58        40        465.9481         50000.0        460.9481
         1        57        40       463.23273         50000.0       458.23273
         1        57        39        443.1582         50000.0        438.1582
         1        56        40       452.57623         50000.0       447.57623
         1        56        37        442.1439         50000.0        437.1439
         1        56        38       441.99805         50000.0       436.99805
         1        56        39       443.21664         50000.0       438.21664
         1        56        36       442.55344         50000.0       437.55344
         1        55        40       443.80423         50000.0       438.80423
         1        55        36       442.55582         50000.0       437.55582
         1        55        41        463.3516         50000.0        458.3516
         1        54        41        451.8921         50000.0        446.8921
         1        54        35       445.24368         50000.0       440.24368
         1        54        36       444.98758         50000.0       439.98758
         1        53        41       446.01498         50000.0       441.01498
         1        53        34       443.78506         50000.0       438.78506
         1        53        35       443.06024         50000.0       438.06024
         1        53        42        470.8319         50000.0        465.8319
         1        52        42       445.14777         50000.0       440.14777
         1        52        31       448.08173         50000.0       443.08173
         1        52        35         443.194         50000.0         438.194
         1        52        32       451.47592         50000.0       446.47592
         1        52        33       447.99527         50000.0       442.99527
         1        52        34       451.21786         50000.0       446.21786
         1        51        42       444.91248         50000.0       439.91248
         1        51        31       451.50873         50000.0       446.50873
         1        51        33        453.0591         50000.0        448.0591
         1        51        34       446.68536         50000.0       441.68536
         1        51        29       502.19116         50000.0       497.19116
         1        51        28       450.77237         50000.0       445.77237
         1        51        30        454.3856         50000.0        449.3856
         1        50        42       445.18036         50000.0       440.18036
         1        50        28        456.9809         50000.0        451.9809
         1        50        31       454.49915         50000.0       449.49915
         1        49        42       445.03702         50000.0       440.03702
         1        49        28         455.183         50000.0         450.183
         1        49        27       456.14877         50000.0       451.14877